%nproc=15
%mem=70GB
%chk=ETTA_Aldehyde_Azine_freq.chk
#P B3LYP/6-311++G(d,p) EmpiricalDispersion=GD3 freq(noraman) SCF=YQC

Restart from ETTA_Aldehyde_Azine.log

0 1
 C   0.090246  -0.676245  -0.677868
 C  -0.090250   0.676277  -0.677900
 C  -1.041465  -1.632697  -0.547627
 C  -2.027412  -1.467881   0.442225
 H  -1.962613  -0.621083   1.114407
 C  -3.073179  -2.365373   0.568126
 H  -3.825021  -2.231880   1.335780
 C  -3.175247  -3.467446  -0.299497
 C  -2.184641  -3.644304  -1.276938
 H  -2.243881  -4.493134  -1.950545
 C  -1.128735  -2.749065  -1.390929
 H  -0.366432  -2.907892  -2.144871
 C  -1.433975   1.300402  -0.809740
 C  -2.331809   0.892245  -1.805296
 H  -2.045950   0.099369  -2.485290
 C  -3.580160   1.488363  -1.922836
 H  -4.260338   1.159209  -2.701663
 C  -3.974726   2.510999  -1.047322
 C  -3.070255   2.933555  -0.056936
 H  -3.367239   3.725342   0.619360
 C  -1.820877   2.346197   0.048026
 H  -1.129140   2.687797   0.809647
 C   1.433968  -1.300373  -0.809710
 C   1.820913  -2.346101   0.048122
 H   1.129205  -2.687645   0.809797
 C   3.070282  -2.933469  -0.056854
 H   3.367291  -3.725211   0.619483
 C   3.974709  -2.510991  -1.047316
 C   3.580111  -1.488411  -1.922879
 H   4.260252  -1.159310  -2.701760
 C   2.331765  -0.892284  -1.805325
 H   2.045879  -0.099455  -2.485365
 C   1.041461   1.632729  -0.547658
 C   2.027367   1.467945   0.442239
 H   1.962526   0.621180   1.114460
 C   3.073143   2.365427   0.568145
 H   3.824942   2.231960   1.335845
 C   3.175267   3.467453  -0.299528
 C   2.184709   3.644274  -1.277028
 H   2.243993   4.493069  -1.950675
 C   1.128799   2.749045  -1.391024
 H   0.366535   2.907843  -2.145013
 C  -4.268090  -4.430403  -0.209793
 N  -5.206882  -4.325867   0.661458
 H  -4.273923  -5.263896  -0.918311
 N  -6.142490  -5.347252   0.566336
 C  -7.084577  -5.238294   1.432782
 C  -8.182710  -6.198666   1.521866
 H  -7.080581  -4.401328   2.137170
 C  -9.175191  -6.007662   2.494700
 C  -10.237349  -6.900653   2.610296
 H  -9.111133  -5.153973   3.161662
 C  -10.320003  -7.996748   1.753819
 H  -10.997885  -6.741559   3.366204
 C  -9.335719  -8.196145   0.780830
 H  -11.145841  -8.693781   1.841401
 C  -8.275676  -7.307752   0.662957
 H  -9.400036  -9.049080   0.114480
 H  -7.508388  -7.453182  -0.087117
 C  -5.299379   3.105110  -1.196348
 N  -5.721340   4.046256  -0.429790
 H  -5.943548   2.722862  -1.993514
 N  -7.007582   4.460552  -0.748739
 C  -7.431385   5.398211   0.020087
 C  -8.758342   5.993014  -0.127118
 H  -6.788308   5.777591   0.819664
 C  -9.146452   7.014730   0.752280
 C  -10.402406   7.606133   0.643613
 H  -8.458042   7.344766   1.523597
 C  -11.286529   7.182523  -0.346691
 H  -10.690087   8.394797   1.329458
 C  -10.909300   6.164681  -1.228156
 H  -12.265161   7.641030  -0.433801
 C  -9.658006   5.573112  -1.122463
 H  -11.597339   5.834965  -1.998567
 H  -9.356310   4.784074  -1.799879
 C   5.299347  -3.105129  -1.196368
 N   5.721327  -4.046241  -0.429778
 H   5.943489  -2.722929  -1.993579
 N   7.007553  -4.460569  -0.748758
 C   7.431380  -5.398183   0.020109
 C   8.758326  -5.993006  -0.127114
 H   6.788333  -5.777509   0.819736
 C   9.146438  -7.014721   0.752285
 C   10.402379  -7.606146   0.643598
 H   8.458038  -7.344738   1.523620
 C   11.286490  -7.182557  -0.346727
 H   10.690061  -8.394810   1.329441
 C   10.909262  -6.164714  -1.228190
 H   12.265113  -7.641081  -0.433853
 C   9.657980  -5.573123  -1.122477
 H   11.597294  -5.835011  -1.998614
 H   9.356285  -4.784083  -1.799891
 C   4.268121   4.430399  -0.209825
 N   5.206880   4.325883   0.661463
 H   4.273992   5.263859  -0.918381
 N   6.142516   5.347243   0.566322
 C   7.084564   5.238310   1.432814
 C   8.182718   6.198659   1.521891
 H   7.080519   4.401381   2.137246
 C   9.175210   6.007625   2.494707
 C   10.237393   6.900587   2.610290
 H   9.111141   5.153934   3.161666
 C   10.320059   7.996686   1.753820
 H   10.997939   6.741469   3.366183
 C   9.335760   8.196117   0.780852
 H   11.145916   8.693697   1.841391
 C   8.275693   7.307752   0.662992
 H   9.400083   9.049058   0.114511
 H   7.508393   7.453209  -0.087064






