%nproc=15
%mem=70GB
%chk=ETTA_Aldehyde_Azine.chk
#P B3LYP/6-311++G(d,p) EmpiricalDispersion=GD3 opt SCF=YQC

Comment

0 1
 C    -0.673043696000000    -0.061281087000000    0.099838696000000
 C    0.676216304000000    0.084438913000000    -0.077921304000000
 C    -1.445563696000000    0.859668913000000    0.987758696000000
 C    -1.208593696000000    0.910808913000000    2.368608696000000
 H    -0.435593696000000    0.291168913000000    2.815748696000000
 C    -1.956453696000000    1.762468913000000    3.184708696000000
 H    -1.756043696000000    1.803278913000000    4.251888696000000
 C    -2.958213696000000    2.558248913000000    2.631708696000000
 C    -3.215433696000000    2.502618913000000    1.263248696000000
 H    -4.001643696000000    3.116068913000000    0.831638696000000
 C    -2.465153696000000    1.655188913000000    0.445338696000000
 H    -2.681203696000000    1.618718913000000    -0.619611304000000
 C    1.423956304000000    1.217358913000000    0.545288696000000
 C    1.186576304000000    2.544388913000000    0.160958696000000
 H    0.432056304000000    2.771628913000000    -0.587751304000000
 C    1.910456304000000    3.588888913000000    0.739918696000000
 H    1.711366304000000    4.615018913000000    0.443058696000000
 C    2.886286304000000    3.315958913000000    1.697168696000000
 C    3.142086304000000    1.999178913000000    2.075248696000000
 H    3.907026304000000    1.784298913000000    2.816488696000000
 C    2.417466304000000    0.953908913000000    1.499138696000000
 H    2.631376304000000    -0.068851087000000    1.799648696000000
 C    -1.412513696000000    -1.154241087000000    -0.600071304000000
 C    -1.922953696000000    -2.232601087000000    0.134698696000000
 H    -1.770443696000000    -2.283151087000000    1.209878696000000
 C    -2.626883696000000    -3.253351087000000    -0.507091304000000
 H    -3.013833696000000    -4.089711087000000    0.068518696000000
 C    -2.834543696000000    -3.198741087000000    -1.884751304000000
 C    -2.343603696000000    -2.122491087000001    -2.622201304000000
 H    -2.507323696000000    -2.077791087000000    -3.695421304000000
 C    -1.638713696000000    -1.101381087000000    -1.982691304000000
 H    -1.261323696000000    -0.266561087000000    -2.567421304000000
 C    1.439886304000000    -0.894691087000000    -0.907871304000000
 C    1.681336304000000    -2.196721087000000    -0.447761304000000
 H    1.299246304000000    -2.515401087000000    0.518518696000000
 C    2.406656304000000    -3.098111087000000    -1.228831304000000
 H    2.581246304000000    -4.108341087000000    -0.868861304000000
 C    2.903116304000000    -2.703191087000000    -2.470121304000000
 C    2.679966304000000    -1.406181087000000    -2.930431304000000
 H    3.069876304000000    -1.097111087000000    -3.896341304000000
 C    1.955636304000000    -0.502771087000000    -2.150401304000000
 H    1.790596304000000    0.507088913000000    -2.517471304000000
 C    -3.907705325000000    3.363591587000000    3.422312329000000
 N    -3.780866141000000    3.537905414000000    4.700039362000000
 H    -4.747089553000000    3.825504524000000    2.870449180000000
 N    -4.801568024000000    4.354093430000000    5.182656665000000
 C    -4.680147531000000    4.541596050000000    6.458570065000000
 C    -5.616894370000000    5.389129820000000    7.221049451000000
 H    -3.855653937000000    4.071298587000000    7.025240507000000
 C    -5.410422585000000    5.553811245000000    8.593957016999999
 C    -6.274831348000000    6.364475960000000    9.332420405000001
 H    -4.581948156000000    5.060997219000000    9.095594595000000
 C    -7.341021308000000    7.006749714000000    8.701272607000000
 H    -6.116679528000000    6.497958306000000    10.399769125000001
 C    -7.547865592000000    6.839409673000000    7.331528647000000
 H    -8.011653086000001    7.639828326000000    9.277414832000000
 C    -6.686478499000000    6.030210954000000    6.588664778000000
 H    -8.378457739000000    7.340795790000000    6.841044980000000
 H    -6.851014225000000    5.906131171000000    5.521076218000001
 C    3.768063646000000    4.382049712000000    2.208132887000000
 N    4.707122918000000    4.157424959000000    3.072292170000000
 H    3.595692141000000    5.400677824000000    1.814220191000000
 N    5.393681417000000    5.334869838000000    3.360694070000000
 C    6.340460469999999    5.120445334000000    4.218299300000000
 C    7.240073191000000    6.194678395000001    4.680796034000000
 H    6.512134847999999    4.110253635000000    4.633179307000000
 C    8.247580516999999    5.880508579000000    5.597775896000000
 C    9.120701691000001    6.877842797000000    6.036742680000000
 H    8.363411473999999    4.867030853000000    5.972371535000000
 C    8.986549504999999    8.183198528000000    5.561691360000000
 H    9.907594904000000    6.637826438000000    6.747554922000000
 C    7.978861905000000    8.496271064000000    4.648708856000000
 H    9.669055505000001    8.958085536000000    5.902588793000000
 C    7.103500620000000    7.502858900000000    4.206541564000000
 H    7.875872161000000    9.513408856000000    4.279020601000000
 H    6.322188084000001    7.752311150000000    3.492722662000000
 C    -3.723613551000000    -4.191531369000000    -2.516485051000000
 N    -4.231826301000000    -5.189130870000000    -1.864124032000000
 H    -3.947342478000000    -4.046395415000000    -3.589501035000000
 N    -5.045434326000001    -5.951727526000000    -2.699230609000000
 C    -5.565358278000000    -6.948037306000000    -2.055102455000000
 C    -6.488966021000000    -7.902961629999999    -2.697170378000000
 H    -5.335980159000000    -7.114600508000000    -0.986586119000000
 C    -7.019853354000000    -8.944713810000000    -1.930660894000000
 C    -7.908594340000000    -9.850497299000001    -2.513244531000000
 H    -6.752462319000000    -9.057876530000000    -0.883487538000000
 C    -8.264167220999999    -9.715725180000000    -3.856013518000000
 H    -8.326348728999999    -10.660562474000001    -1.920506385000000
 C    -7.731501761000000    -8.677337020000000    -4.620868602000000
 H    -8.958490176000000    -10.420458693000000    -4.307391060000000
 C    -6.842755919000000    -7.769005518000000    -4.043199379000000
 H    -8.009808444000001    -8.573181442999999    -5.666594468000000
 H    -6.433385615000000    -6.960150348000000    -4.643517960000000
 C    3.828812377000000    -3.524019587000000    -3.272924289000000
 N    4.100987735000000    -4.756953745000000    -2.981627538000000
 H    4.288037049000000    -3.037686913000000    -4.153308075000000
 N    4.984657933000000    -5.293115875000000    -3.915743070000000
 C    5.257822577000000    -6.528593456000000    -3.638558300000000
 C    6.151864637000000    -7.344296248000000    -4.482655864000000
 H    4.819209440999999    -7.021435343000000    -2.751535092000000
 C    6.386327943000000    -8.675234590000001    -4.124527615000000
 C    7.215908743000000    -9.470473053999999    -4.917685508000000
 H    5.927822922000000    -9.102079709000000    -3.236579310000000
 C    7.808815296000000    -8.937223066000000    -6.062993510000000
 H    7.398965916000000    -10.506883280000000    -4.644909517000000
 C    7.576425388000000    -7.607937334000000    -6.417930317000000
 H    8.452472430000000    -9.558728570000000    -6.680983621000000
 C    6.747732866000000    -6.808724789000000    -5.628522292000000
 H    8.038460087000001    -7.194004173000000    -7.310695044000000
 H    6.568023156000000    -5.774513158000000    -5.911936923000000




