%nproc=15
%mem=70GB
%chk=ETTA_Aldehyde_Imine.chk
#P B3LYP/6-311++G(d,p) EmpiricalDispersion=GD3 opt SCF=YQC

Comment

0 1
 C    -0.673043696000000    -0.061281087000000    0.099838696000000
 C    0.676216304000000    0.084438913000000    -0.077921304000000
 C    -1.445563696000000    0.859668913000000    0.987758696000000
 C    -1.208593696000000    0.910808913000000    2.368608696000000
 H    -0.435593696000000    0.291168913000000    2.815748696000000
 C    -1.956453696000000    1.762468913000000    3.184708696000000
 H    -1.756043696000000    1.803278913000000    4.251888696000000
 C    -2.958213696000000    2.558248913000000    2.631708696000000
 C    -3.215433696000000    2.502618913000000    1.263248696000000
 H    -4.001643696000000    3.116068913000000    0.831638696000000
 C    -2.465153696000000    1.655188913000000    0.445338696000000
 H    -2.681203696000000    1.618718913000000    -0.619611304000000
 C    1.423956304000000    1.217358913000000    0.545288696000000
 C    1.186576304000000    2.544388913000000    0.160958696000000
 H    0.432056304000000    2.771628913000000    -0.587751304000000
 C    1.910456304000000    3.588888913000000    0.739918696000000
 H    1.711366304000000    4.615018913000000    0.443058696000000
 C    2.886286304000000    3.315958913000000    1.697168696000000
 C    3.142086304000000    1.999178913000000    2.075248696000000
 H    3.907026304000000    1.784298913000000    2.816488696000000
 C    2.417466304000000    0.953908913000000    1.499138696000000
 H    2.631376304000000    -0.068851087000000    1.799648696000000
 C    -1.412513696000000    -1.154241087000000    -0.600071304000000
 C    -1.922953696000000    -2.232601087000000    0.134698696000000
 H    -1.770443696000000    -2.283151087000000    1.209878696000000
 C    -2.626883696000000    -3.253351087000000    -0.507091304000000
 H    -3.013833696000000    -4.089711087000000    0.068518696000000
 C    -2.834543696000000    -3.198741087000000    -1.884751304000000
 C    -2.343603696000000    -2.122491087000001    -2.622201304000000
 H    -2.507323696000000    -2.077791087000000    -3.695421304000000
 C    -1.638713696000000    -1.101381087000000    -1.982691304000000
 H    -1.261323696000000    -0.266561087000000    -2.567421304000000
 C    1.439886304000000    -0.894691087000000    -0.907871304000000
 C    1.681336304000000    -2.196721087000000    -0.447761304000000
 H    1.299246304000000    -2.515401087000000    0.518518696000000
 C    2.406656304000000    -3.098111087000000    -1.228831304000000
 H    2.581246304000000    -4.108341087000000    -0.868861304000000
 C    2.903116304000000    -2.703191087000000    -2.470121304000000
 C    2.679966304000000    -1.406181087000000    -2.930431304000000
 H    3.069876304000000    -1.097111087000000    -3.896341304000000
 C    1.955636304000000    -0.502771087000000    -2.150401304000000
 H    1.790596304000000    0.507088913000000    -2.517471304000000
 C    -6.405094393000000    6.002534043000000    6.851548850000000
 C    -6.008493907000000    4.760100506000000    7.349874654000000
 C    -5.919957429000001    6.435605048000000    5.618156166000000
 C    -5.061015532000000    5.629124873000000    4.875981063000000
 C    -4.673288675000000    4.371091540000000    5.365419216000000
 C    -5.135930092000000    3.957579282000000    6.623395239000000
 C    -3.886251456000000    3.384438089000000    3.410934696000000
 N    -3.793126855000000    3.519827315000000    4.677133787000000
 H    -6.371959720000000    4.421380918000000    8.313651968000000
 H    -6.202948648000000    7.410089756000000    5.235599492000001
 H    -4.660396830000000    5.984794046000000    3.933536170000000
 H    -4.808297327000000    2.998079287000000    7.005741130000000
 H    -4.685139714000000    3.873639521000000    2.836347483000000
 H    -7.072755142000000    6.633484895000000    7.426754628000000
 C    7.305485904000000    7.198884566000000    4.332448716000000
 C    6.752172287000000    6.297499879000000    5.243827525000000
 C    6.992615781000000    7.087100128000001    2.978276493000000
 C    6.119195488000000    6.096861380000000    2.536032723000000
 C    5.546612464000000    5.198909478000000    3.451653142000000
 C    5.894370711000000    5.294145700000000    4.807207422000000
 C    3.781801765000000    4.371853298000000    2.181084913000000
 N    4.676673826000000    4.164934763000000    3.068018555000000
 H    6.999905598000000    6.370427437000000    6.296925262000000
 H    7.437935720000000    7.767251567000000    2.260545168000000
 H    5.905665615000000    5.993423573000000    1.478250187000000
 H    5.470317138000000    4.578826544000000    5.501951204000000
 H    3.625423682000000    5.366840172000000    1.741496501000000
 H    7.986467379000000    7.970374204000000    4.672741987000000
 C    -6.910102245000000    -7.861161613000000    -3.674386706000000
 C    -5.880443976000000    -8.317849914000000    -2.849461684000000
 C    -7.054767903000000    -6.492897692000001    -3.900421151000000
 C    -6.168585037000000    -5.585855910000000    -3.325120819000000
 C    -5.120805885000000    -6.042107378000000    -2.508712138000000
 C    -5.003381612000000    -7.416846506000000    -2.256052266000000
 C    -3.742745363000000    -4.167575555000000    -2.507298735000000
 N    -4.207398721000000    -5.178825617000000    -1.881412850000000
 H    -5.768559841000000    -9.379449449999999    -2.659215967999999
 H    -7.867128357000000    -6.128084253999999    -4.519319957000000
 H    -6.305736927000000    -4.521274477000000    -3.476956295000000
 H    -4.209558353000000    -7.756983426000000    -1.601588089000000
 H    -3.990665873000000    -3.978337051000000    -3.561061121000000
 H    -7.602415954000000    -8.564030438000000    -4.123172495000000
 C    6.588102458000000    -7.092378061000000    -5.420892776000000
 C    6.708679863000000    -7.118764704000000    -4.030199969000000
 C    5.623042147000000    -6.278076671000000    -6.012279050000000
 C    4.796117032000000    -5.480042298000000    -5.225925865000000
 C    4.925666984000000    -5.490288297000000    -3.827483331999999
 C    5.873696978000000    -6.339243074000000    -3.237527352000000
 C    3.800271612000000    -3.527030229000000    -3.287089614000000
 N    4.108926838000000    -4.726622281000000    -2.977293827000000
 H    7.448688592000000    -7.758342703000000    -3.562191283000000
 H    5.505797153000000    -6.270875226000000    -7.090358748000000
 H    4.025339796000000    -4.874372573000000    -5.688813450000000
 H    5.946605718000000    -6.362059265000000    -2.156631619000000
 H    4.208233524000000    -3.040392268000000    -4.183996260000000
 H    7.229283106000000    -7.712839181000000    -6.036235700000000




