%nproc=18
%mem=70GB
%chk=THB_benzene.chk
#P B3LYP/6-311++G(d,p) EmpiricalDispersion=GD3 opt SCF=YQC

Restart from /home/juul/PhD/Research/HPC/PhD/Data/SBUs/THB/_benzene_larger/THB_benzene.log

0 1
 C   1.204885  -5.521354   0.000000
 C  -0.000115  -4.800687   0.000000
 C  -1.204961  -5.521592   0.000000
 C  -1.228224  -6.923298   0.000000
 C   0.000165  -7.601850   0.000000
 C   1.228425  -6.923048   0.000000
 B  -0.000217  -3.262301   0.000000
 O   1.144176  -2.464912   0.000000
 C   0.698363  -1.162033   0.000000
 C   1.458232  -0.000018   0.000000
 C   0.698382   1.162005   0.000000
 C  -0.698650   1.162025   0.000000
 C  -1.458528   0.000020   0.000000
 C  -0.698671  -1.161994   0.000000
 O   1.144238   2.464883   0.000000
 B  -0.000108   3.262303   0.000000
 O  -1.144468   2.464922   0.000000
 O  -1.144527  -2.464889   0.000000
 C  -0.000062   4.800688   0.000000
 C  -1.204961   5.521514   0.000000
 C  -1.228317   6.923216   0.000000
 C   0.000030   7.601852   0.000000
 C   1.228332   6.923134   0.000000
 C   1.204884   5.521435   0.000000
 H  -2.145527   4.981053   0.000000
 H   0.000066   8.686253   0.000000
 H   2.145414   4.980910   0.000000
 H   2.539446  -0.000023   0.000000
 H  -2.539742   0.000026   0.000000
 H  -2.145565  -4.981196   0.000000
 H   0.000278  -8.686251   0.000000
 H   2.145374  -4.980761   0.000000
 B   2.580460  -7.702732   0.000000
 B  -2.580111  -7.703238   0.000000
 O  -2.542091  -9.077444   0.000000
 O  -3.749501  -6.980107   0.000000
 H  -4.564794  -7.489008   0.000000
 H  -3.392135  -9.525906   0.000000
 O   3.749713  -6.979380   0.000000
 O   2.542699  -9.076946   0.000000
 H   4.565104  -7.488123   0.000000
 H   3.392830  -9.525243   0.000000
 B  -2.580254   7.703068   0.000000
 B   2.580321   7.702898   0.000000
 O  -2.542322   9.077277   0.000000
 H  -3.392396   9.525683   0.000000
 O  -3.749597   6.979862   0.000000
 H  -4.564922   7.488711   0.000000
 O   3.749617   6.979616   0.000000
 O   2.542478   9.077109   0.000000
 H   3.392581   9.525460   0.000000
 H   4.564975   7.488411   0.000000






