%nproc=18
%mem=70GB
%chk=THB_benzene_freq.chk
#P B3LYP/6-311++G(d,p) EmpiricalDispersion=GD3 freq(noraman) SCF=YQC

Restart from THB_benzene.log

0 1
 C   1.205472  -5.515051   0.000000
 C  -0.000057  -4.796301   0.000000
 C  -1.205530  -5.515136   0.000000
 C  -1.227512  -6.916439   0.000000
 C   0.000044  -7.595940   0.000000
 C   1.227553  -6.916349   0.000000
 B  -0.000092  -3.260433   0.000000
 O   1.145253  -2.464544   0.000000
 C   0.698766  -1.162030   0.000000
 C   1.458468  -0.000011   0.000000
 C   0.698779   1.162015   0.000000
 C  -0.698876   1.162026   0.000000
 C  -1.458581   0.000011   0.000000
 C  -0.698889  -1.162012   0.000000
 O   1.145289   2.464527   0.000000
 B  -0.000033   3.260433   0.000000
 O  -1.145365   2.464547   0.000000
 O  -1.145400  -2.464530   0.000000
 C  -0.000012   4.796301   0.000000
 C  -1.205502   5.515112   0.000000
 C  -1.227512   6.916413   0.000000
 C   0.000031   7.595940   0.000000
 C   1.227553   6.916376   0.000000
 C   1.205500   5.515075   0.000000
 H  -2.145567   4.973579   0.000000
 H   0.000047   8.680406   0.000000
 H   2.145549   4.973513   0.000000
 H   2.539365  -0.000015   0.000000
 H  -2.539478   0.000015   0.000000
 H  -2.145608  -4.973624   0.000000
 H   0.000084  -8.680406   0.000000
 H   2.145508  -4.973468   0.000000
 B   2.578368  -7.695782   0.000000
 B  -2.578273  -7.695964   0.000000
 O  -2.538900  -9.070151   0.000000
 O  -3.747196  -6.972029   0.000000
 H  -4.562435  -7.480506   0.000000
 H  -3.388521  -9.518850   0.000000
 O   3.747241  -6.971765   0.000000
 O   2.539090  -9.069971   0.000000
 H   4.562515  -7.480186   0.000000
 H   3.388742  -9.518611   0.000000
 B  -2.578289   7.695912   0.000000
 B   2.578353   7.695834   0.000000
 O  -2.538943   9.070099   0.000000
 H  -3.388572   9.518782   0.000000
 O  -3.747197   6.971953   0.000000
 H  -4.562446   7.480415   0.000000
 O   3.747240   6.971839   0.000000
 O   2.539049   9.070022   0.000000
 H   3.388692   9.518679   0.000000
 H   4.562504   7.480276   0.000000






