%nproc=15
%mem=70GB
%chk=ExtendedTrisPhenyl_BoronicAcid_Borosilicate_freq_opt_freq.chk
#P B3LYP/6-311++G(d,p) EmpiricalDispersion=GD3 freq(noraman) SCF=YQC

Restart from ExtendedTrisPhenyl_BoronicAcid_Borosilicate_freq_opt.log

0 1
 C   1.758493   2.214600  -0.000228
 C   0.870925   1.103124   0.002903
 C  -0.517467   1.305890   0.007524
 H  -0.912611   2.313303   0.006685
 C  -1.397801   0.213248   0.013315
 C  -2.804262   0.425362   0.015825
 C  -0.879167  -1.090540   0.015329
 H  -1.554053  -1.936430   0.020153
 C   0.507220  -1.306677   0.009201
 C   1.026853  -2.630750   0.009138
 C   1.376935  -0.205630   0.002606
 H   2.446946  -0.367138  -0.001641
 C   1.469296  -3.756926   0.008477
 C   1.989792  -5.078913   0.006954
 C  -4.000736   0.605602   0.016119
 C  -5.405648   0.817115   0.013537
 C   2.514100   3.159634  -0.001361
 C   3.402404   4.268444  -0.002246
 C   1.125124  -6.188268   0.071454
 C   1.641085  -7.476074   0.069755
 H   0.055660  -6.022592   0.122819
 C   3.025336  -7.708084   0.002781
 H   0.966548  -8.323344   0.120472
 C   3.879424  -6.594246  -0.061936
 C   3.378605  -5.300461  -0.059503
 H   4.950518  -6.753791  -0.114351
 H   4.047831  -4.449881  -0.109353
 C   2.903841   5.584836   0.027928
 C   3.777997   6.662135   0.028718
 H   1.832395   5.743914   0.051049
 C   5.170025   6.473076  -0.000965
 H   3.383666   7.671772   0.052763
 C   5.657208   5.155445  -0.031622
 C   4.795741   4.068031  -0.032183
 H   6.728438   4.990022  -0.054899
 H   5.183946   3.056799  -0.055492
 C  -5.932577   2.121925  -0.035300
 C  -7.305658   2.320129  -0.039650
 H  -5.253380   2.965357  -0.070242
 C  -8.199992   1.237235   0.005455
 H  -7.701029   3.328923  -0.078649
 C  -7.663878  -0.060691   0.055001
 C  -6.293211  -0.274972   0.058638
 H  -8.338587  -0.908644   0.090433
 H  -5.892301  -1.280835   0.096217
 B   3.594745  -9.153104  -0.000059
 O   2.729224  -10.220977   0.075814
 O   4.956079  -9.342716  -0.078813
Si   2.792025  -11.868289   0.111573
Si   6.035184  -10.588724  -0.121839
 O   3.503254  -12.425883  -1.273582
 O   3.674321  -12.361121   1.420576
 H   1.441188  -12.403864   0.209981
 O   5.898789  -11.487888   1.259611
 O   5.725279  -11.546146  -1.434234
 H   7.387444  -10.056722  -0.220276
 B   4.698927  -12.304585  -1.926720
 H   4.851558  -12.877946  -2.956636
 B   4.942769  -12.217002   1.911811
 H   5.223777  -12.743559   2.939719
 B   6.141978   7.684544   0.000764
 O   7.500021   7.461156  -0.031661
 O   5.630061   8.962126   0.035293
Si   8.899714   8.332611  -0.046592
Si   6.175065   10.518242   0.054401
 O   8.928912   9.311178  -1.379451
 O   8.989642   9.260122   1.319634
 H   10.037233   7.424049  -0.089396
 O   7.121643   10.757803   1.389287
 O   7.063086   10.811294  -1.309760
 H   5.039996   11.429913   0.097096
 B   8.189003   10.327893  -1.917753
 H   8.536384   10.807828  -2.948174
 B   8.273738   10.254314   1.928012
 H   8.666367   10.695987   2.959290
 B  -9.735953   1.467963   0.000182
 O  -10.226168   2.753159  -0.058167
 O  -10.582286   0.383315   0.053187
Si  -11.682922   3.524569  -0.098422
Si  -12.201639   0.073244   0.077557
 O  -12.537301   3.027426  -1.424424
 O  -12.536889   3.167613   1.272300
 H  -11.468834   4.963358  -0.173281
 O  -12.885770   0.801234   1.395616
 O  -12.899728   0.662798  -1.301092
 H  -12.419555  -1.364996   0.152340
 B  -13.044914   1.865187  -1.937032
 H  -13.632393   1.901352  -2.969717
 B  -13.034669   2.061842   1.905241
 H  -13.616622   2.201232   2.932302






