%nproc=15
%mem=70GB
%chk=ExtendedTrisPhenyl_Nitrile_Triazine_freq.chk
#P B3LYP/6-311++G(d,p) EmpiricalDispersion=GD3 freq(noraman) SCF=YQC

Restart from ExtendedTrisPhenyl_Nitrile_Triazine.log

0 1
 C  -1.035491   2.632437  -0.000078
 C  -0.514814   1.309104  -0.000058
 C  -1.383579   0.207224  -0.000069
 H  -2.453754   0.367593  -0.000089
 C  -0.875960  -1.100916  -0.000057
 C  -1.761690  -2.213479  -0.000072
 C   0.512681  -1.302363  -0.000033
 H   0.908868  -2.309354  -0.000028
 C   1.391752  -0.208679  -0.000019
 C   2.798131  -0.419413   0.000010
 C   0.871879   1.094638  -0.000032
 H   1.545856   1.941249  -0.000020
 C   3.994851  -0.598736   0.000031
 C   5.398715  -0.809230   0.000027
 C  -2.515490  -3.160096  -0.000079
 C  -3.399925  -4.270465  -0.000054
 C  -1.478590   3.758474  -0.000090
 C  -1.998289   5.079479  -0.000056
 C   5.927994  -2.114110   0.000195
 C   7.298430  -2.317432   0.000194
 H   5.251415  -2.959885   0.000328
 C   8.181488  -1.226629   0.000022
 H   7.702805  -3.321066   0.000326
 C   7.657312   0.075245  -0.000148
 C   6.287528   0.282951  -0.000145
 H   8.338366   0.916059  -0.000282
 H   5.888870   1.290009  -0.000276
 C  -3.388565   5.303042  -0.000073
 C  -3.893665   6.593127  -0.000045
 H  -4.061320   4.454222  -0.000109
 C  -3.028371   7.698070   0.000002
 H  -4.962369   6.762453  -0.000060
 C  -1.642162   7.478800   0.000021
 C  -1.132939   6.190343  -0.000008
 H  -0.975231   8.330860   0.000059
 H  -0.062178   6.027363   0.000006
 C  -4.794585  -4.076112   0.000067
 C  -5.656090  -5.161120   0.000088
 H  -5.188552  -3.067210   0.000142
 C  -5.153212  -6.471371  -0.000012
 H  -6.727422  -5.009312   0.000182
 C  -3.763703  -6.668635  -0.000134
 C  -2.898730  -5.586387  -0.000155
 H  -3.376255  -7.678925  -0.000214
 H  -1.827293  -5.744867  -0.000250
 C   9.641520  -1.445618   0.000018
 N   10.096715  -2.711961   0.000210
 C   11.419108  -2.842772   0.000200
 N   10.448198  -0.368539  -0.000168
 C   11.750783  -0.631434  -0.000157
 N   12.308199  -1.845580   0.000021
 H   12.424925   0.220699  -0.000307
 H   11.813599  -3.855182   0.000349
 C  -3.568836   9.071945   0.000032
 N  -2.699835   10.099402   0.000096
 C  -3.247848   11.309991   0.000118
 N  -4.904973   9.231902  -0.000008
 C  -5.328685   10.491385   0.000016
 N  -4.556005   11.581260   0.000079
 H  -6.403736   10.649059  -0.000011
 H  -2.568389   12.157890   0.000168
 C  -6.073116  -7.626113   0.000009
 N  -7.397358  -7.386884   0.000164
 C  -8.172053  -8.466550   0.000184
 N  -5.543935  -8.863368  -0.000113
 C  -6.423106  -9.859811  -0.000077
 N  -7.753268  -9.735205   0.000069
 H  -6.022415  -10.869783  -0.000175
 H  -9.246038  -8.301768   0.000306






