%nproc=15
%mem=70GB
%chk=PMDA_Ketoenamine_Ketoenamine_freq.chk
#P B3LYP/6-311++G(d,p) EmpiricalDispersion=GD3 freq(noraman) SCF=YQC NoSymm

Restart from PMDA_Ketoenamine_Ketoenamine.log

0 1
 C   2.675029  -0.768412  -0.555749
 C   1.224828  -0.484188  -0.347282
 C   0.120979  -1.160682  -0.852431
 H   0.211746  -2.028114  -1.493894
 C  -1.108275  -0.638628  -0.467984
 C  -2.479394  -1.109924  -0.821592
 C  -1.225011   0.479577   0.358066
 C  -2.675214   0.763818   0.566511
 C  -0.121163   1.156075   0.863211
 H  -0.211931   2.023510   1.504671
 C   1.108090   0.634014   0.478774
 C   2.479208   1.105313   0.832377
 N  -3.371829  -0.225577  -0.169284
 N   3.371646   0.220989   0.180031
 O  -3.170490   1.645048   1.221283
 O  -2.784518  -2.046026  -1.515956
 O   2.784337   2.041405   1.526750
 O   3.170299  -1.649649  -1.210518
 C  -4.793111  -0.318213  -0.246092
 C   4.792928   0.313583   0.256852
 C  -5.558389   0.837480  -0.421978
 C  -6.940412   0.738757  -0.490540
 H  -5.074613   1.801991  -0.489670
 C  -7.581070  -0.504387  -0.410476
 H  -7.549079   1.625643  -0.612215
 C  -6.797289  -1.651312  -0.234213
 C  -5.413333  -1.563986  -0.142722
 H  -7.259656  -2.625340  -0.139659
 H  -4.818212  -2.455647  -0.003343
 C   5.413203   1.559338   0.153502
 C   6.797166   1.646606   0.244972
 H   4.818115   2.451027   0.014169
 C   7.580899   0.499637   0.421140
 H   7.259569   2.620624   0.150472
 C   6.940202  -0.743479   0.501182
 C   5.558167  -0.842139   0.432683
 H   7.548823  -1.630407   0.622775
 H   5.074366  -1.806636   0.500398
 C  -9.079768  -0.533005  -0.495925
 O  -9.707722   0.530241  -0.334192
 C  -9.753239  -1.779136  -0.782614
 C  -11.119245  -1.879363  -0.851976
 H  -9.183196  -2.672001  -0.990044
 N  -11.975043  -0.855475  -0.660889
 H  -11.565228  -2.838095  -1.090505
 C  -13.377623  -0.896187  -0.684988
 H  -11.506476   0.038841  -0.495683
 C  -14.106916  -2.091767  -0.641831
 C  -14.067147   0.323624  -0.739992
 C  -15.498391  -2.058327  -0.675078
 H  -13.602207  -3.046268  -0.562933
 C  -16.183146  -0.845900  -0.736316
 H  -16.049708  -2.991228  -0.640486
 C  -15.456634   0.344567  -0.762837
 H  -13.505597   1.251183  -0.771323
 H  -17.266142  -0.828570  -0.756689
 H  -15.972975   1.296748  -0.806185
 C   9.079606   0.528199   0.506434
 O   9.707546  -0.534961   0.344211
 C   9.753089   1.774227   0.793565
 C   11.119095   1.874405   0.862799
 H   9.183056   2.666997   1.001430
 N   11.974852   0.850577   0.671153
 H   11.565140   2.833018   1.101690
 C   13.377435   0.891224   0.695172
 H   11.506269  -0.043660   0.505611
 C   14.106780   2.086801   0.652808
 C   14.066912  -0.328655   0.749265
 C   15.498255   2.053275   0.685908
 H   13.602110   3.041385   0.574663
 C   16.182964   0.840775   0.746229
 H   16.049609   2.986177   0.651937
 C   15.456401  -0.349676   0.771980
 H   13.505330  -1.256215   0.779989
 H   17.265961   0.823384   0.766496
 H   15.972700  -1.301912   0.814617






