%nproc=15
%mem=70GB
%chk=BiPhenyl_BoronicAcid_BoronateEster.chk
#P B3LYP/6-311++G(d,p) EmpiricalDispersion=GD3 opt SCF=YQC

Comment

0 1
 C    -0.000000000000000    3.577958000000000    -0.000000182000000
 C    1.133739000000000    2.852350000000000    -0.402520182000000
 C    1.135339000000000    1.463226000000000    -0.401762182000000
 C    -0.000000000000000    0.741600000000000    -0.000000182000000
 C    -1.135339000000000    1.463225000000000    0.401761818000000
 C    -1.133738000000000    2.852349000000000    0.402519818000000
 C    -0.000000000000000    -0.741600000000000    -0.000000182000000
 C    -1.135339000000000    -1.463226000000000    -0.401762182000000
 C    -1.133739000000000    -2.852350000000000    -0.402520182000000
 C    -0.000000000000000    -3.577958000000000    -0.000000182000000
 C    1.133738000000000    -2.852349000000000    0.402519818000000
 C    1.135339000000000    -1.463225000000000    0.401761818000000
 H    -2.020512000000000    -3.385811000000000    -0.727052182000000
 H    -2.020512000000000    3.385812000000000    0.727052818000000
 H    2.020512000000000    -3.385812000000000    0.727052818000000
 H    2.020512000000000    3.385811000000000    -0.727052182000000
 H    -2.015826000000000    -0.929067000000000    -0.740072182000000
 H    -2.015827000000000    0.929068000000000    0.740072818000000
 H    2.015826000000000    0.929067000000000    -0.740072182000000
 H    2.015827000000000    -0.929068000000000    0.740072818000000
 B    0.000006581000000    5.116495000000000    -0.000002589000000
 O    1.080591320000000    5.907897055000000    -0.382388794000000
 O    -1.080561826000000    5.907910945000000    0.382377756000000
 C    0.657011559000000    7.210532561000000    -0.232496830000000
 C    -0.656966711000000    7.210543439000000    0.232480226000000
 C    1.347898491000000    8.381561842000000    -0.476980819000000
 C    -1.347836450000000    8.381584158000001    0.476958013000000
 C    0.659049168000000    9.576721545000000    -0.233217998000000
 C    -0.658967694000000    9.576732455000000    0.233188193000000
 H    2.368239702000000    8.368395396000000    -0.838048626000000
 H    -2.368176911000000    8.368438604000000    0.838025555000000
 H    1.160507106000000    10.520650393000000    -0.410668800000000
 H    -1.160413659000000    10.520668605999999    0.410634663000000
 B    0.000006581000000    -5.116495000000000    0.000002069000000
 O    1.080591342000000    -5.907897094000000    0.382388131000000
 O    -1.080561848000000    -5.907910906000000    -0.382378294000000
 C    0.657011572000000    -7.210532585000000    0.232496059000000
 C    -0.656966724000000    -7.210543415000000    -0.232480921000000
 C    1.347898518000000    -8.381561891000000    0.476979890000000
 C    -1.347836477000000    -8.381584109000000    -0.476958788000000
 C    0.659049181000000    -9.576721568000000    0.233216987000000
 C    -0.658967708000000    -9.576732431000000    -0.233189129000000
 H    2.368239750000000    -8.368395481000000    0.838047639000000
 H    -2.368176959000000    -8.368438519000000    -0.838026270000000
 H    1.160507129000000    -10.520650435000000    0.410667665000000
 H    -1.160413682000000    -10.520668564999999    -0.410635666000000




