%nproc=15
%mem=70GB
%chk=HHTP_benzene.chk
#P B3LYP/6-311++G(d,p) EmpiricalDispersion=GD3 opt SCF=YQC

Comment

0 1
 C    2.471072885000000    -1.447983737000000    0.000000000000000
 C    1.244981200000000    -0.731861535000000    0.000000000000000
 C    0.011768466000000    -1.444113526000000    0.000000000000000
 C    0.019367650000000    -2.863979797000000    0.000000000000000
 C    1.222601899000000    -3.512494589000000    0.000000000000000
 C    2.431523371000000    -2.814285618000000    0.000000000000000
 C    1.244742721000000    0.732175417000000    0.000000000000000
 C    0.011315046000000    1.444047183000000    0.000000000000000
 C    -1.256464853000000    0.711818113000000    0.000000000000000
 C    -1.256258818000000    -0.712293589000000    0.000000000000000
 C    -2.489489988000000    -1.416049634000000    0.000000000000000
 C    -3.652971849000000    -0.698637192000000    0.000000000000000
 C    -3.653150288000000    0.697425990000000    0.000000000000000
 C    -2.489897518000000    1.415190298000000    0.000000000000000
 C    0.018457322000000    2.863925017000000    0.000000000000000
 C    1.221480837000000    3.512833511000000    0.000000000000000
 C    2.430599941000000    2.814978565000000    0.000000000000000
 C    2.470581560000000    1.448690861000000    0.000000000000000
 O    -4.954678057000000    1.146449298000000    0.000000000000000
 B    -5.749565032000000    -0.000860429000000    0.000000000000000
 O    -4.954408875000000    -1.147999110000000    0.000000000000000
 O    3.470211811000000    3.717645512000000    0.000000000000000
 B    2.874035212000000    4.979692179000000    0.000000000000000
 O    1.483010580000000    4.864587564000000    0.000000000000000
 O    1.484532171000000    -4.864160550000000    0.000000000000000
 B    2.875582166000000    -4.978863990000000    0.000000000000000
 O    3.471418801000000    -3.716656670000000    0.000000000000000
 C    -7.287653038000000    -0.000817668000000    0.000000000000000
 C    -8.000195493000000    1.207728511000000    0.000000000000000
 C    -9.399513549000000    1.233863023000000    0.000000000000000
 C    -10.115186035000001    -0.000214485000000    0.000000000000000
 C    -9.400042621000003    -1.234609327000000    0.000000000000000
 C    -8.000689320999999    -1.209092174000000    0.000000000000000
 C    3.643074484000000    6.311724110000000    0.000000000000000
 C    5.045977102000000    6.324550571000000    0.000000000000000
 C    5.768250438000000    7.523345920000000    0.000000000000000
 C    5.057305383000000    8.760152808999999    0.000000000000000
 C    3.630720075000000    8.757997258000000    0.000000000000000
 C    2.953164990000000    7.533350333000000    0.000000000000000
 C    3.644618840000000    -6.310895365000000    0.000000000000000
 C    2.954248190000000    -7.532247157000000    0.000000000000000
 C    3.631287474000000    -8.757156183999998    0.000000000000000
 C    5.057861718000000    -8.759902667000000    0.000000000000000
 C    5.769314666000000    -7.523373914000000    0.000000000000000
 C    5.047528295000000    -6.324265239000000    0.000000000000000
 H    -2.537195916000000    2.493456764000000    0.000000000000000
 H    3.428034377000000    0.950514997000000    0.000000000000000
 H    -0.890789951000000    -3.444067774000000    0.000000000000000
 H    -0.891889756000000    3.443716660000000    0.000000000000000
 H    -2.536441315000000    -2.494332404000000    0.000000000000000
 H    3.428377030000000    -0.949502051000000    0.000000000000000
 H    5.590211306000000    -5.384627443000000    0.000000000000000
 C    5.769814739000000    -9.993696897000000    0.000000000000000
 H    -7.458285911000000    -2.148892206000000    0.000000000000000
 C    -11.539655249000001    0.000127256000000    0.000000000000000
 H    -7.457404513000000    2.147304378000000    0.000000000000000
 H    1.868073525000000    7.533502577000000    0.000000000000000
 H    5.588284149000000    5.384699199000000    0.000000000000000
 C    5.769812093000000    9.993628156000000    0.000000000000000
 H    1.869157274000000    -7.531962724000000    0.000000000000000
 C    5.057178307000000    11.229526712000000    0.000000000000000
 C    5.780653505000000    12.430840151000000    0.000000000000000
 C    7.172744112000000    12.422372575000001    0.000000000000000
 C    7.875605218000000    11.220718029000000    0.000000000000000
 C    7.196447494000000    9.993812733000000    0.000000000000000
 H    5.242896736000000    13.372980638000000    0.000000000000000
 H    7.715077724000000    13.361259892000000    0.000000000000000
 H    8.960403307000000    11.225607202999999    0.000000000000000
 C    7.196447494000000    -9.994525112000000    0.000000000000000
 C    7.875064981000000    -11.221733307999999    0.000000000000000
 C    7.171663955000000    -12.423073734999999    0.000000000000000
 C    5.779570279000000    -12.430911378000001    0.000000000000000
 C    5.056629910000000    -11.229283397000000    0.000000000000000
 H    8.959861906000000    -11.227103980000001    0.000000000000000
 H    7.713578565000000    -13.362200504000000    0.000000000000000
 H    5.241394407000000    -13.372814106000000    0.000000000000000
 C    -12.253698716000001    -1.234958531000000    0.000000000000000
 C    -13.655798974000000    -1.209038325000000    0.000000000000000
 C    -14.344493000000000    0.000792520000000    0.000000000000000
 C    -13.655226351000000    1.210297460000000    0.000000000000000
 C    -12.253117466999999    1.235551701000000    0.000000000000000
 H    -14.202856233000000    -2.145812003000000    0.000000000000000
 H    -15.428758525999999    0.001045243000000    0.000000000000000
 H    -14.201838624999999    2.147329524000000    0.000000000000000
 C    7.205331691000000    7.555766650000000    0.000000000000000
 C    7.885021820000000    8.732315018000000    0.000000000000000
 H    7.741293798000000    6.612479171000000    0.000000000000000
 H    8.970003480999999    8.738145546000000    0.000000000000000
 C    3.620386874000000    11.195678898000001    0.000000000000000
 C    2.940799876000000    10.019064964000000    0.000000000000000
 H    3.083330767000000    12.138437728000000    0.000000000000000
 H    1.855905206000000    10.012056594000001    0.000000000000000
 C    -11.504873754000000    2.462600271000000    0.000000000000000
 C    -10.146111362999999    2.462214882000000    0.000000000000000
 H    -12.052383513000001    3.399322349000000    0.000000000000000
 H    -9.597168750999998    3.398006851000000    0.000000000000000
 C    -11.506010956000001    -2.462347161000000    0.000000000000000
 C    -10.147241684999999    -2.462610596000000    0.000000000000000
 H    -12.053951040999999    -3.398819514000000    0.000000000000000
 H    -9.598753953999999    -3.398667249000000    0.000000000000000
 C    7.206390575000000    -7.556457438000000    0.000000000000000
 C    7.885554172000000    -8.733316275000000    0.000000000000000
 C    3.619855061000000    -11.194818614000001    0.000000000000000
 C    2.940799855000000    -10.017904530999999    0.000000000000000
 H    1.855910223000000    -10.010394131000000    0.000000000000000
 H    3.082389774000000    -12.137341431999999    0.000000000000000
 H    7.742793909000000    -6.613421213000000    0.000000000000000
 H    8.970533717000000    -8.739613854000000    0.000000000000000




