%nproc=15
%mem=70GB
%chk=TetraPhenylSilane_BoronicAcid_Borosilicate_freq.chk
#P B3LYP/6-311++G(d,p) EmpiricalDispersion=GD3 freq(noraman) SCF=YQC NoSymm

Restart from TetraPhenylSilane_BoronicAcid_Borosilicate_pbe_b3lyp.log

0 1
Si   0.001318   0.009632   0.003189
 C  -1.842042  -4.327239  -0.331818
 C   2.398971   1.016369  -3.940613
 C   2.915879   0.178724   3.716851
 C  -3.474131   3.159410   0.565428
 C  -1.433596  -3.631320  -1.479985
 C   3.071974   0.626447  -2.772553
 C   2.043568   1.243038   3.441827
 C  -3.689889   1.798366   0.830805
 C  -0.871819  -2.360980  -1.387753
 C   2.373843   0.346381  -1.601179
 C   1.168491   1.192971   2.360214
 C  -2.675878   0.862035   0.649673
 C  -0.698859  -1.737655  -0.142089
 C   0.974551   0.445759  -1.554445
 C   1.134292   0.075504   1.511599
 C  -1.405909   1.252849   0.197427
 C  -1.100733  -2.437886   1.008549
 C   0.301118   0.845180  -2.721858
 C   2.002345  -0.993972   1.791829
 C  -1.191911   2.614985  -0.075628
 C  -1.663364  -3.706654   0.915027
 C   0.999571   1.121897  -3.892563
 C   2.877558  -0.941996   2.871666
 C  -2.205601   3.549973   0.107130
 H  -1.557210  -4.097341  -2.451524
 H   4.153491   0.546351  -2.788309
 H   2.053822   2.114300   4.087705
 H  -4.665407   1.476671   1.178945
 H  -0.558066  -1.852845  -2.293670
 H   2.923973   0.054361  -0.712692
 H   0.500536   2.028675   2.178959
 H  -2.877078  -0.184233   0.855068
 H  -0.962046  -1.991120   1.988304
 H  -0.779391   0.951131  -2.712322
 H   1.985886  -1.880883   1.165799
 H  -0.226377   2.946101  -0.445641
 H  -1.967055  -4.231066   1.814545
 H   0.461946   1.427807  -4.783482
 H   3.539834  -1.777312   3.071580
 H  -2.021289   4.596647  -0.109384
 B  -2.468659  -5.745767  -0.436457
 O  -2.854627  -6.401343   0.711056
 O  -2.628783  -6.325243  -1.674853
Si  -3.533705  -7.838367   1.148668
Si  -3.204234  -7.725038  -2.327964
 O  -5.026637  -7.981340   0.451119
 O  -2.569208  -9.083957   0.645000
 H  -3.671341  -7.889972   2.597741
 O  -2.341713  -9.007384  -1.738298
 O  -4.799869  -7.906961  -1.932135
 H  -3.068830  -7.677981  -3.777359
 B  -5.567515  -8.010078  -0.804868
 H  -6.744561  -8.128998  -0.920531
 B  -2.066440  -9.579264  -0.526730
 H  -1.366873  -10.539607  -0.490698
 B   3.179654   1.326797  -5.248294
 O   2.486266   1.698988  -6.377959
 O   4.552356   1.223910  -5.257772
Si   2.798306   2.112436  -7.943076
Si   5.807909   1.425456  -6.306599
 O   3.763569   3.455011  -7.980258
 O   3.566428   0.861057  -8.704545
 H   1.545982   2.399216  -8.629251
 O   5.632483   0.392613  -7.586643
 O   5.826197   2.985200  -6.856890
 H   7.062717   1.139669  -5.624628
 B   5.001706   3.835585  -7.540790
 H   5.373811   4.942808  -7.761104
 B   4.722808   0.141696  -8.576706
 H   4.944699  -0.731010  -9.352659
 B   3.892626   0.234661   4.924631
 O   4.733322  -0.829206   5.163189
 O   3.903398   1.345808   5.737134
Si   5.902189  -1.276143   6.236056
Si   4.694130   1.892692   7.076369
 O   7.145285  -0.186031   6.188138
 O   5.266619  -1.319525   7.762462
 H   6.405301  -2.597190   5.885139
 O   4.436026   0.852599   8.336281
 O   6.315647   1.986025   6.763724
 H   4.194163   3.213884   7.431012
 B   7.336025   1.152214   6.397209
 H   8.425618   1.605821   6.255876
 B   4.659136  -0.462537   8.638524
 H   4.313770  -0.874678   9.698621
 B  -4.608391   4.202840   0.766887
 O  -4.364710   5.529703   0.492113
 O  -5.839993   3.784256   1.217350
Si  -5.168058   6.968976   0.526061
Si  -7.313034   4.423877   1.588721
 O  -6.479197   6.896553  -0.479528
 O  -5.674253   7.285278   2.068621
 H  -4.277955   8.033153   0.082605
 O  -7.144394   5.540357   2.797448
 O  -7.953085   5.155032   0.250131
 H  -8.206702   3.363048   2.032900
 B  -7.627037   6.164648  -0.613042
 H  -8.366345   6.414877  -1.509566
 B  -6.478628   6.714856   3.016535
 H  -6.603481   7.258551   4.066186






