%nproc=15
%mem=70GB
%chk=TetraPhenylSilane_BoronicAcid_Borosilicate.chk
#P B3LYP/6-311++G(d,p) EmpiricalDispersion=GD3 opt SCF=YQC

Comment

0 1
Si    -0.000000000000000    0.000000000000000    -0.000000000000000
 C    -0.334711000000000    -3.282421000000000    -2.523411000000000
 C    -3.282421000000000    0.334711000000000    2.523412000000000
 C    0.334711000000000    3.282422000000000    -2.523411000000000
 C    3.282421000000000    -0.334711000000000    2.523412000000000
 C    -1.442915000000000    -2.894269000000000    -1.866366000000000
 C    -2.894268000000000    1.442915000000000    1.866365000000000
 C    1.442915000000000    2.894269000000000    -1.866366000000000
 C    2.894269000000000    -1.442914000000000    1.866365000000000
 C    -1.355721000000000    -1.850757000000000    -1.055712000000000
 C    -1.850756000000000    1.355721000000000    1.055713000000000
 C    1.355722000000000    1.850757000000000    -1.055712000000000
 C    1.850757000000000    -1.355721000000000    1.055713000000000
 C    -0.132197000000000    -1.201023000000000    -0.847056000000000
 C    -1.201023000000000    0.132197000000000    0.847056000000000
 C    0.132198000000000    1.201023000000000    -0.847056000000000
 C    1.201024000000000    -0.132198000000000    0.847056000000000
 C    0.964755000000000    -1.566674000000000    -1.552049000000000
 C    -1.566674000000000    -0.964756000000000    1.552050000000000
 C    -0.964756000000000    1.566674000000000    -1.552049000000000
 C    1.566675000000000    0.964754000000000    1.552050000000000
 C    0.874751000000000    -2.604561000000000    -2.363589000000000
 C    -2.604559000000000    -0.874752000000000    2.363589000000000
 C    -0.874750000000000    2.604559000000000    -2.363589000000000
 C    2.604560000000000    0.874750000000000    2.363589000000000
 H    -2.387983000000000    -3.392116000000000    -1.994223000000000
 H    -3.392115000000000    2.387984000000000    1.994223000000000
 H    2.387983000000000    3.392116000000000    -1.994223000000000
 H    3.392116000000000    -2.387983000000000    1.994223000000000
 H    -2.258597000000000    -1.552610000000000    -0.616202000000000
 H    -1.552610000000000    2.258597000000000    0.616202000000000
 H    2.258598000000000    1.552609000000000    -0.616202000000000
 H    1.552610000000000    -2.258598000000000    0.616202000000000
 H    1.907010000000000    -1.051950000000000    -1.461484000000000
 H    -1.051950000000000    -1.907011000000000    1.461484000000000
 H    -1.907010000000000    1.051952000000000    -1.461484000000000
 H    1.051951000000000    1.907009000000000    1.461484000000000
 H    1.760751000000000    -2.888643000000000    -2.847495000000000
 H    -2.888643000000000    -1.760751000000000    2.847496000000000
 H    -1.760749000000000    2.888644000000000    -2.847495000000000
 H    2.888643000000000    1.760751000000000    2.847496000000000
 B    -0.442036407000000    -4.547970770000000    -3.457049388000000
 O    0.618517209000000    -4.971628501000000    -4.159365472000000
 O    -1.605112135000000    -5.202642864000000    -3.589778142000000
Si    1.037058611000000    -5.981250512000000    -5.325851236000000
Si    -2.317288789000000    -6.347840201000000    -4.447534606000001
 O    0.723477635000000    -7.460363139000000    -4.807726422000000
 O    0.068537281000000    -5.705915617000000    -6.567961309000000
 H    2.449833338000000    -5.820002213000000    -5.697509167000000
 O    -2.152019340000000    -5.960615600000000    -5.989616019000000
 O    -1.495674008000000    -7.699286094000000    -4.214176999000000
 H    -3.731310905000000    -6.498610742000000    -4.076029124000000
 B    -0.268794208000000    -8.225808477999999    -4.332844291000000
 H    -0.011646132000000    -9.236116815999999    -3.779203846000000
 B    -1.226159278000000    -5.665912494999999    -6.912687436000000
 H    -1.547600765000000    -5.091225690000000    -7.892333961000000
 B    -4.505523871000000    0.458824539000000    3.510037966000000
 O    -4.953939234000000    -0.611520852000000    4.181448522000000
 O    -5.138847135000000    1.630343897000000    3.669416945000000
Si    -6.170576547000000    -1.111938253000000    5.089511638000000
Si    -6.436717265000000    2.282137394000000    4.336587870000000
 O    -6.174870772000000    -0.215055714000000    6.412441639000000
 O    -7.522614404000000    -0.787054808000000    4.300129169000000
 H    -6.058272808000000    -2.544070889000000    5.400070884000000
 O    -7.704808615000000    1.462178340000000    3.812294589000000
 O    -6.338519095000000    2.033867559000000    5.912859367000000
 H    -6.546766055000000    3.712265237000000    4.015916323000000
 B    -6.228792568000000    1.058628925000000    6.825773100000000
 H    -5.910698957000000    1.326873618000000    7.930411979000000
 B    -8.206359417000000    0.221394029000000    3.741381253000000
 H    -9.049660620999997    -0.017989172000000    2.950915801000000
 B    0.442036263000000    4.547971965000000    -3.457049140000000
 O    -0.618516937000000    4.971628706000000    -4.159366452000000
 O    1.605111497000000    5.202645229000000    -3.589776443000000
Si    -1.037057950000000    5.981250410000000    -5.325852621000000
Si    2.317288035000000    6.347843357000000    -4.447531948000000
 O    -0.723479067000000    7.460363301000000    -4.807727293000001
 O    -0.068534861000000    5.705916596000000    -6.567961562000000
 H    -2.449832073000000    5.820000739000000    -5.697512256000000
 O    2.152020815000000    5.960618736000000    -5.989613595000000
 O    1.495671629000000    7.699288410000000    -4.214175195000000
 H    3.731309557000000    6.498615272000000    -4.076024762000000
 B    0.268791446000000    8.225809583000000    -4.332843904000000
 H    0.011641703000000    9.236117612999999    -3.779203670000000
 B    1.226162149000000    5.665914797000000    -6.912686146000000
 H    1.547605379000000    5.091228404000000    -7.892332341000000
 B    4.505523350000000    -0.458824420000000    3.510038627000000
 O    4.953939336000000    0.611521378000000    4.181448120000000
 O    5.138845554999999    -1.630344127000000    3.669419244000001
Si    6.170576688000000    1.111938812000000    5.089511164000000
Si    6.436714851000000    -2.282137942000000    4.336591480000000
 O    6.174869596000000    0.215057817000000    6.412442216000000
 O    7.522614604000000    0.787053298000000    4.300129645000000
 H    6.058274031000000    2.544071906000000    5.400068686000000
 O    7.704807117000000    -1.462180575000000    3.812297775000000
 O    6.338516227000000    -2.033866179000000    5.912862644000000
 H    6.546762566000001    -3.712266253000000    4.015921653000000
 B    6.228790140000000    -1.058626383000000    6.825775190000000
 H    5.910695836000000    -1.326869515000000    7.930414249000000
 B    8.206358999000001    -0.221396771000000    3.741383198000000
 H    9.049660739000000    0.017984791000000    2.950917822000000




