%nproc=15
%mem=70GB
%chk=F_PrimaryAmine_Ketoenamine.chk
#P B3LYP/6-311++G(d,p) EmpiricalDispersion=GD3 opt SCF=YQC NoSymm

Comment

0 1
 F    1.342850000000000    -2.363239000000000    -0.181050000000000
 C    0.684160000000000    -1.200169000000000    -0.092040000000000
 C    -0.709070000000000    -1.188689000000000    -0.034700000000000
 F    -1.391880000000000    -2.340709000000000    -0.068500000000000
 C    -1.404610000000000    0.011571000000000    0.057810000000000
 C    -0.684160000000000    1.200171000000000    0.092040000000000
 F    -1.342850000000000    2.363241000000000    0.181050000000000
 C    0.709070000000000    1.188691000000000    0.034700000000000
 F    1.391880000000000    2.340711000000000    0.068500000000000
 C    1.404610000000000    -0.011579000000000    -0.057810000000000
 H    -7.392700534000000    -2.516328187000000    0.030780713000000
 C    -7.956721778000000    -1.598423759000000    0.189712496000000
 C    -9.350449994000000    -1.667623582000000    0.271188644000000
 H    -9.852354794000000    -2.627504152000000    0.176560820000000
 C    -10.094330343999999    -0.508740270000000    0.474534416000000
 H    -11.178591291000000    -0.560715118000000    0.537511455000000
 C    -9.445665739000001    0.716696384000000    0.602848799000000
 H    -10.026826476000000    1.621363372000000    0.767508143000000
 C    -8.049991328999999    0.788050053000000    0.526497724000000
 H    -7.599057005000000    1.765524038000000    0.651995335000000
 C    -7.287997151000000    -0.369268777000000    0.310608548000000
 C    -5.790429498000000    -0.370245492000000    0.284248515000000
 O    -5.178360411000000    -1.397403067000000    0.569856383000000
 C    -5.062996206000000    0.855566728000000    -0.153355642000000
 C    -3.725064022000000    0.928414723000000    -0.202924475000000
 H    -5.624569648000000    1.725470162000000    -0.457659705000000
 N    -2.807501828000000    -0.038875113000000    0.106989165000000
 H    -3.290653500000000    1.864851749000000    -0.537749975000000
 H    -3.222267281000000    -0.929906852000000    0.394895440000000
 H    7.392700534000000    2.516328187000000    -0.030780713000000
 C    7.956721778000000    1.598423759000000    -0.189712496000000
 C    9.350449994000000    1.667623582000000    -0.271188644000000
 H    9.852354794000000    2.627504152000000    -0.176560820000000
 C    10.094330343999999    0.508740270000000    -0.474534416000000
 H    11.178591291000000    0.560715118000000    -0.537511455000000
 C    9.445665739000001    -0.716696384000000    -0.602848799000000
 H    10.026826476000000    -1.621363372000000    -0.767508143000000
 C    8.049991328999999    -0.788050053000000    -0.526497724000000
 H    7.599057005000000    -1.765524038000000    -0.651995335000000
 C    7.287997151000000    0.369268777000000    -0.310608548000000
 C    5.790429498000000    0.370245492000000    -0.284248515000000
 O    5.178360411000000    1.397403067000000    -0.569856383000000
 C    5.062996206000000    -0.855566728000000    0.153355642000000
 C    3.725064022000000    -0.928414723000000    0.202924475000000
 H    5.624569648000000    -1.725470162000000    0.457659705000000
 N    2.807501828000000    0.038875113000000    -0.106989165000000
 H    3.290653500000000    -1.864851749000000    0.537749975000000
 H    3.222267281000000    0.929906852000000    -0.394895440000000




