%nproc=15
%mem=70GB
%chk=P_AmineBorane_Borazine.chk
#P B3LYP/6-311++G(d,p) EmpiricalDispersion=GD3 opt SCF=YQC

Comment

0 1
 C    3.834450000000000    2.028850000000000    0.170710000000000
 C    4.206330000000000    0.766460000000000    -0.028510000000000
 C    3.061750000000000    -0.118750000000000    -0.027720000000000
 C    2.370940000000000    1.922770000000000    0.075610000000000
 N    1.928970000000000    0.690610000000000    -0.011520000000000
 C    1.610010000000000    3.228620000000000    0.050410000000000
 C    0.261520000000000    3.197680000000000    0.091160000000000
 N    -0.610890000000000    2.132640000000000    0.135180000000000
 C    -1.936010000000000    2.503710000000000    0.103780000000000
 C    -0.610970000000000    4.367110000000000    0.089560000000000
 C    -1.888450000000000    3.964100000000000    0.143740000000000
 C    -3.061790000000000    1.761380000000000    0.025080000000000
 C    -2.951580000000000    0.254180000000000    -0.012510000000000
 N    -1.879610000000000    -0.503420000000000    -0.000070000000000
 C    -3.782560000000000    -1.754340000000000    0.057960000000000
 C    -4.212200000000000    -0.502070000000000    -0.047320000000000
 C    -0.176010000000000    -3.028340000000000    -0.060020000000000
 N    0.671370000000000    -1.928970000000000    -0.029400000000000
 C    1.995920000000000    -2.349370000000000    -0.010440000000000
 C    1.965000000000000    -3.733700000000000    0.015910000000000
 C    0.639340000000000    -4.146480000000000    -0.126480000000000
 C    3.147630000000000    -1.476470000000000    -0.015980000000000
 C    -1.620780000000000    -2.974640000000000    -0.017310000000000
 C    -2.336100000000000    -1.819480000000000    0.013870000000000
 H    4.463900000000001    2.885230000000000    0.286010000000000
 H    5.237850000000000    0.476960000000000    -0.118110000000000
 C    2.358930000000000    4.521340000000000    -0.050440000000000
 H    -0.306820000000000    1.166360000000000    0.052270000000000
 H    -0.301730000000000    5.398590000000000    0.063860000000000
 H    -2.734880000000000    4.629900000000000    0.185090000000000
 C    -4.397420000000000    2.434930000000000    -0.006460000000000
 H    -4.450990000000000    -2.596530000000000    0.127720000000000
 H    -5.226140000000000    -0.160350000000000    -0.095230000000000
 H    0.368460000000000    -0.960990000000000    -0.016620000000000
 H    2.820260000000000    -4.392510000000000    0.077770000000000
 H    0.310690000000000    -5.174130000000000    -0.203890000000000
 C    4.531580000000000    -2.102480000000000    -0.035610000000000
 C    -2.374400000000000    -4.291369999999999    0.032450000000000
 C    -4.741190000000000    3.311750000000000    -1.050370000000000
 C    -5.977000000000000    3.965120000000000    -1.062590000000000
 H    -4.031900000000000    3.519110000000000    -1.850140000000000
 C    -6.911260000000000    3.708380000000000    -0.062580000000000
 H    -6.208570000000000    4.674480000000000    -1.853500000000000
 C    -6.599060000000000    2.823450000000000    0.966560000000000
 C    -5.340520000000000    2.215570000000000    1.011330000000000
 H    -7.333480000000000    2.610180000000000    1.739570000000000
 H    -5.112220000000000    1.548090000000000    1.840350000000000
 C    3.256720000000000    4.734290000000000    -1.112880000000000
 C    4.070410000000000    5.869650000000000    -1.151690000000000
 H    3.370520000000000    3.985610000000000    -1.895730000000000
 C    3.946060000000000    6.847820000000000    -0.169600000000000
 H    4.807020000000000    5.983140000000000    -1.943480000000000
 C    3.020070000000000    6.683940000000000    0.858240000000000
 C    2.251750000000000    5.517520000000001    0.933110000000000
 H    2.906760000000000    7.458130000000000    1.613260000000000
 H    1.565100000000000    5.396900000000000    1.768870000000000
 C    4.872220000000000    -3.027410000000000    -1.039010000000000
 C    6.122890000000000    -3.651820000000000    -1.053390000000000
 H    4.145120000000000    -3.295470000000000    -1.803690000000000
 C    7.080580000000000    -3.314800000000000    -0.101320000000000
 H    6.344820000000000    -4.401200000000000    -1.808820000000000
 C    6.772130000000000    -2.389760000000000    0.892460000000000
 C    5.494670000000000    -1.823420000000000    0.950700000000000
 H    7.522030000000000    -2.113930000000000    1.629310000000000
 H    5.266900000000000    -1.133430000000000    1.760630000000000
 C    -3.297960000000000    -4.666250000000000    -0.957890000000000
 C    -3.944920000000000    -5.905850000000000    -0.903880000000000
 H    -3.528960000000000    -3.989670000000000    -1.777670000000000
 C    -3.627980000000000    -6.818279999999999    0.100320000000000
 H    -4.684150000000000    -6.165690000000000    -1.657210000000000
 C    -2.689640000000000    -6.480600000000001    1.070970000000000
 C    -2.091670000000000    -5.217730000000000    1.053630000000000
 H    -2.411560000000000    -7.200630000000000    1.836380000000000
 H    -1.358000000000000    -4.974810000000000    1.820860000000000
 N    -8.262865226000001    4.273131560000000    -0.044507870000000
 B    -9.238919190000001    4.160387660000000    1.137768753000000
 B    -8.730740638000000    5.143881472000000    -1.221820289000000
 H    -8.990520687000000    3.536289951000000    2.100536806000000
 N    -10.594007247000000    4.861624002000000    1.156718123000000
 H    -8.080873534000000    5.297173115000000    -2.187373016000000
 N    -10.078317321000000    5.859636889000001    -1.232219034000000
 B    -10.999309601000000    5.707922762000000    -0.035811023000000
 H    -11.231369270000000    4.764534362000000    1.978568342000000
 H    -10.365172204999999    6.440971745000000    -2.051272905000000
 H    -12.045748680999999    6.256079101000000    -0.032707950000000
 N    4.622713107000000    7.992175771000000    -0.171071408000000
 B    4.506884810000000    9.018891756000000    0.967176647000000
 B    5.563030077000000    8.372393297000000    -1.326240647000000
 H    3.832061465000000    8.837921693000000    1.910567011000000
 N    5.269936243000000    10.340293818999999    0.965121448000000
 H    5.725674450000000    7.678090877000000    -2.258768721000000
 N    6.341443417000000    9.684461600000001    -1.356675925000000
 B    6.183531245000000    10.658558459000000    -0.203924807000000
 H    5.168796937000000    11.013801638000000    1.757114244000000
 H    6.969399327000000    9.911517940000000    -2.159920581000000
 H    6.779891673000000    11.678220136000002    -0.216733184000000
 N    8.325310805999999    -4.077237000000000    -0.089935605000000
 B    9.331373062000001    -3.888907381000000    1.057034854000000
 B    8.779726734000000    -4.991188299000000    -1.239447037000000
 H    9.095907671999999    -3.226469331000000    1.997169935000000
 N    10.702161390000001    -4.559104367000000    1.068457896000000
 H    8.106657198000001    -5.202951503000000    -2.177664173000000
 N    10.142516190000000    -5.677404534000001    -1.256448242000000
 B    11.093057741000001    -5.450690580000000    -0.095540137000000
 H    11.359981867000000    -4.410384181000000    1.866110111000000
 H    10.419472967000001    -6.289660509000001    -2.056149904000000
 H    12.151449019999999    -5.975401876000000    -0.097929404000000
 N    -4.382922030000000    -8.213340779999999    0.149058846000000
 B    -4.231676429000000    -9.190380568000000    1.326211582000000
 B    -5.310111682000000    -8.670142091000001    -0.988846797000000
 H    -3.563093474000000    -8.949870356000000    2.260702759000000
 N    -4.949136072000000    -10.536129228000000    1.376880432000000
 H    -5.496715379000000    -8.018652657000001    -1.947417728000000
 N    -6.043253286000000    -10.008199429999999    -0.966873867000000
 B    -5.851740990000000    -10.930689523000000    0.222651733000000
 H    -4.824762148000000    -11.174426069000001    2.194317157000000
 H    -6.663371577000000    -10.287674669999999    -1.759610947000000
 H    -6.412920048000000    -11.969833183000000    0.250549202000000




