%nproc=15
%mem=70GB
%chk=TriPhenanthrene_long_CarboxylicAnhydride_Imide_freq.chk
#P B3LYP/6-311++G(d,p) EmpiricalDispersion=GD3 freq(noraman) SCF=YQC NoSymm

Restart from TriPhenanthrene_long_CarboxylicAnhydride_Imide.log

0 1
 H  -3.385574   7.364871   0.007148
 C  -2.865368   6.416871   0.008493
 C  -1.449413   6.419549   0.009553
 H  -4.647316   5.236600   0.006295
 C  -3.564418   5.235039   0.007576
 C  -2.873163   3.996299   0.007826
 H  -0.982686   3.031636   0.008805
 C  -1.479292   3.991343   0.008778
 C  -0.731797   5.182267   0.009796
 C   0.682986   7.619199   0.008550
 C  -0.683602   7.619140   0.012287
 C   1.448900   6.419673   0.011304
 C   2.864855   6.417115   0.012385
 H   3.384980   7.365159   0.013733
 H   4.646904   5.236997   0.014610
 C   3.564005   5.235343   0.013313
 C   2.872856   3.996545   0.013053
 H   0.982461   3.031719   0.012055
 C   1.478985   3.991469   0.012087
 C   0.731389   5.182329   0.011063
 C   4.897334   0.490001   0.014410
 C   6.315739   0.469306   0.015828
 H   6.858512   1.406363   0.016703
 H   8.070819  -0.750436   0.015193
 C   6.989724  -0.726988   0.015425
 C   6.284080  -1.954595   0.013458
 C   4.853747  -1.957477   0.012296
 C   4.196113  -0.714662   0.012676
 H   3.116681  -0.664865   0.011477
 C   4.122279  -3.224719   0.010636
 C   2.717170  -3.276862   0.011022
 H   2.134177  -2.367045   0.012755
 C   2.024713  -4.486580   0.009389
 C   2.752060  -5.704474   0.007323
 H   2.212107  -6.643158   0.006548
 H   4.686076  -6.614220   0.006539
 C   4.125078  -5.689771   0.006883
 C   4.835189  -4.464744   0.008686
 C   6.256964  -4.401124   0.007047
 C   6.940124  -3.217552   0.014137
 H  -6.858599   1.405779   0.004209
 C  -6.315746   0.468769   0.005066
 C  -4.897344   0.489585   0.006471
 H  -3.116591  -0.665131   0.009382
 C  -4.196020  -0.715019   0.008190
 C  -4.853548  -1.957890   0.008566
 H  -8.070722  -0.751123   0.005696
 C  -6.989629  -0.727583   0.005459
 C  -6.283882  -1.955130   0.007403
 H  -2.133943  -2.367227   0.008111
 C  -2.716858  -3.277093   0.009847
 C  -4.121972  -3.225069   0.010225
 C  -2.024298  -4.486753   0.011493
 C  -2.751541  -5.704709   0.013567
 H  -2.211509  -6.643346   0.014358
 H  -4.685481  -6.614619   0.014343
 C  -4.124561  -5.690122   0.013996
 C  -4.834776  -4.465156   0.012172
 C  -6.939817  -3.218144   0.006702
 C  -6.256556  -4.401657   0.013790
 C  -0.605256  -4.495966   0.010859
 C   0.605672  -4.495914   0.010026
 C  -4.195863   1.723142   0.006536
 C  -3.590549   2.771922   0.007139
 C   4.195749   1.723499   0.014348
 C   3.590346   2.772228   0.013745
 C  -1.161973   9.035136   0.012544
 C   1.161234   9.035235   0.008198
 N  -0.000403   9.836734   0.010318
 O   2.295788   9.451023   0.005736
 O  -2.296562   9.450826   0.014950
 C  -0.000463   11.263264   0.010243
 C   0.844217   11.956186  -0.858441
 H   1.501334   11.409484  -1.520875
 C   0.845314   13.348239  -0.848990
 H   1.506630   13.885134  -1.519183
 C  -0.000577   14.048024   0.010092
 H  -0.000621   15.131910   0.010033
 C  -0.846411   13.348263   0.869249
 H  -1.507771   13.885176   1.539384
 C  -0.845200   11.956211   0.878852
 H  -1.502274   11.409527   1.541344
 C   8.405627  -3.511157   0.015202
 C   7.244265  -5.523235   0.004694
 N   8.519127  -4.917852   0.009569
 O   7.037281  -6.713700  -0.001129
 O   9.332899  -2.736406   0.020587
 C   9.754636  -5.630961   0.008851
 C   9.933638  -6.706016  -0.863170
 H   9.132499  -6.999563  -1.527639
 C   11.138717  -7.402877  -0.854442
 H   11.274052  -8.241783  -1.527251
 C   12.166449  -7.022953   0.007348
 H   13.105205  -7.564755   0.006766
 C   11.982090  -5.943462   0.869880
 H   12.776815  -5.641345   1.542109
 C   10.775853  -5.248622   0.880133
 H   10.629900  -4.408430   1.545181
 C  -7.243761  -5.523853   0.016044
 C  -8.405295  -3.511874   0.005540
 N  -8.518674  -4.918579   0.011074
 O  -9.332633  -2.737203   0.000106
 O  -7.036674  -6.714301   0.021812
 C  -9.754124  -5.631792   0.011635
 C  -10.775290  -5.249485  -0.859721
 H  -10.629342  -4.409241  -1.524705
 C  -11.981471  -5.944422  -0.849624
 H  -12.776157  -5.642331  -1.521910
 C  -12.165824  -7.023979   0.012827
 H  -13.104536  -7.565858   0.013287
 C  -11.138144  -7.403871   0.874692
 H  -11.273473  -8.242828   1.547439
 C  -9.933121  -6.706912   0.883576
 H  -9.132022  -7.000434   1.548104






