%nproc=15
%mem=70GB
%chk=TriPhenanthrene_Cyanohydrine_Benzobisoxazole_freq_opt_freq.chk
#P B3LYP/6-311++G(d,p) EmpiricalDispersion=GD3 freq(noraman) SCF=YQC

Restart from TriPhenanthrene_Cyanohydrine_Benzobisoxazole_freq_opt.log

0 1
 C   5.203365   3.295865  -0.039215
 C   0.220413  -6.102226  -0.229353
 C  -5.456419   2.837721   0.198207
 C  -4.737493   3.989400  -0.002899
 C  -1.043835  -6.049957   0.306853
 C   5.826097   2.085794  -0.216786
 C   3.802582   3.498495  -0.041663
 C   1.037960  -4.977582  -0.498754
 C  -4.895979   1.556350   0.413925
 C  -3.307646   3.970708   0.006815
 C  -1.682910  -4.794103   0.555328
 C   5.063343   0.893683  -0.420002
 C   3.183839   4.735986   0.223407
 C   2.358816  -5.041631  -0.983803
 C  -5.649743   0.371141   0.514630
 C  -2.529900   5.109747  -0.271225
 C  -2.997944  -4.675811   1.040832
 C   5.650878  -0.381230  -0.506787
 C   1.810547   4.843566   0.244920
 C   3.117464  -3.897189  -1.109199
 C  -5.024594  -0.849849   0.641335
 C  -1.153661   5.036526  -0.293219
 C  -3.600128  -3.440034   1.155666
 C   4.870945  -1.511928  -0.620271
 C   0.991565   3.723894  -0.032066
 C   2.608181  -2.636284  -0.715017
 C  -3.613957  -0.942760   0.711500
 C  -0.489059   3.822476  -0.002817
 C  -2.929938  -2.261559   0.748847
 C   3.460736  -1.419283  -0.690998
 C   1.614886   2.512399  -0.322221
 C   1.286034  -2.582703  -0.277695
 C  -2.883101   0.243117   0.666306
 C  -1.265971   2.707631   0.300616
 C  -1.613703  -2.387136   0.310513
 C   2.892793  -0.147672  -0.659285
 C   3.009649   2.340403  -0.303763
 C   0.455349  -3.711598  -0.196144
 C  -3.470780   1.505832   0.480133
 C  -2.672396   2.724640   0.282485
 C  -0.942350  -3.619580   0.240548
 C   3.645830   1.027533  -0.487045
 H  -6.729805   0.430288   0.451897
 H  -5.628769  -1.747929   0.651436
 H  -1.809134   0.183795   0.759546
 H  -3.038757   6.039778  -0.494414
 H  -0.580778   5.916104  -0.560573
 H  -0.757670   1.792402   0.567332
 H   3.805831   5.597006   0.437317
 H   1.358063   5.793661   0.500888
 H   0.989402   1.669655  -0.578095
 H   1.820314  -0.064877  -0.752869
 H   5.352331  -2.481632  -0.618810
 H   6.729662  -0.457863  -0.443227
 H   2.775113  -6.006459  -1.248139
 H   4.123284  -3.976700  -1.501889
 H   0.896575  -1.639576   0.076277
 H  -3.532747  -5.578137   1.312115
 H  -4.607083  -3.382898   1.549838
 H  -1.103283  -1.507878  -0.054327
 N  -1.515538  -7.340324   0.480470
 O   0.550597  -7.418113  -0.396764
 C  -0.553976  -8.108233   0.057105
 C   0.607995  -10.241259  -0.489033
 C   0.621473  -11.632024  -0.525062
 H   1.460969  -9.676901  -0.843866
 C  -0.478221  -12.357576  -0.067744
 H   1.491865  -12.150279  -0.910870
 C  -1.596830  -11.684810   0.428122
 H  -0.464565  -13.441140  -0.097147
 C  -1.618979  -10.296229   0.467780
 H  -2.453362  -12.245538   0.784493
 H  -2.480793  -9.763741   0.850085
 C  -0.514004  -9.562968   0.008457
 N   7.196707   2.263021  -0.122366
 O   6.170532   4.239927   0.166838
 C   7.354505   3.535412   0.099663
 C   8.590286   5.657455   0.509904
 C   9.790723   6.340817   0.676325
 H   7.647866   6.187926   0.559007
 C   11.003925   5.656028   0.612428
 H   9.779091   7.409733   0.856040
 C   11.013054   4.279104   0.380555
 H   11.937519   6.191416   0.742518
 C   9.819123   3.588676   0.213097
 H   11.954209   3.743617   0.330169
 H   9.813825   2.521086   0.032432
 C   8.596456   4.274674   0.276888
 N  -5.614503   5.039085  -0.221215
 O  -6.784401   3.150330   0.108567
 C  -6.799141   4.505961  -0.145440
 C  -9.287357   4.428812  -0.179530
 C  -10.511807   5.073587  -0.323480
 H  -9.249512   3.365266   0.018974
 C  -10.558783   6.443768  -0.578968
 H  -11.430835   4.505478  -0.236027
 C  -9.371831   7.170729  -0.690531
 H  -11.514442   6.943177  -0.690645
 C  -8.144684   6.535113  -0.548049
 H  -9.404591   8.235913  -0.888942
 H  -7.217809   7.088494  -0.632238
 C  -8.093768   5.156355  -0.291070






