%nproc=15
%mem=70GB
%chk=TetraPhenylSilane_AmineBorane_Borazine.chk
#P B3LYP/6-311++G(d,p) EmpiricalDispersion=GD3 opt SCF=YQC

Comment

0 1
Si    -0.000000000000000    0.000000000000000    -0.000000000000000
 C    -0.334711000000000    -3.282421000000000    -2.523411000000000
 C    -3.282421000000000    0.334711000000000    2.523412000000000
 C    0.334711000000000    3.282422000000000    -2.523411000000000
 C    3.282421000000000    -0.334711000000000    2.523412000000000
 C    -1.442915000000000    -2.894269000000000    -1.866366000000000
 C    -2.894268000000000    1.442915000000000    1.866365000000000
 C    1.442915000000000    2.894269000000000    -1.866366000000000
 C    2.894269000000000    -1.442914000000000    1.866365000000000
 C    -1.355721000000000    -1.850757000000000    -1.055712000000000
 C    -1.850756000000000    1.355721000000000    1.055713000000000
 C    1.355722000000000    1.850757000000000    -1.055712000000000
 C    1.850757000000000    -1.355721000000000    1.055713000000000
 C    -0.132197000000000    -1.201023000000000    -0.847056000000000
 C    -1.201023000000000    0.132197000000000    0.847056000000000
 C    0.132198000000000    1.201023000000000    -0.847056000000000
 C    1.201024000000000    -0.132198000000000    0.847056000000000
 C    0.964755000000000    -1.566674000000000    -1.552049000000000
 C    -1.566674000000000    -0.964756000000000    1.552050000000000
 C    -0.964756000000000    1.566674000000000    -1.552049000000000
 C    1.566675000000000    0.964754000000000    1.552050000000000
 C    0.874751000000000    -2.604561000000000    -2.363589000000000
 C    -2.604559000000000    -0.874752000000000    2.363589000000000
 C    -0.874750000000000    2.604559000000000    -2.363589000000000
 C    2.604560000000000    0.874750000000000    2.363589000000000
 H    -2.387983000000000    -3.392116000000000    -1.994223000000000
 H    -3.392115000000000    2.387984000000000    1.994223000000000
 H    2.387983000000000    3.392116000000000    -1.994223000000000
 H    3.392116000000000    -2.387983000000000    1.994223000000000
 H    -2.258597000000000    -1.552610000000000    -0.616202000000000
 H    -1.552610000000000    2.258597000000000    0.616202000000000
 H    2.258598000000000    1.552609000000000    -0.616202000000000
 H    1.552610000000000    -2.258598000000000    0.616202000000000
 H    1.907010000000000    -1.051950000000000    -1.461484000000000
 H    -1.051950000000000    -1.907011000000000    1.461484000000000
 H    -1.907010000000000    1.051952000000000    -1.461484000000000
 H    1.051951000000000    1.907009000000000    1.461484000000000
 H    1.760751000000000    -2.888643000000000    -2.847495000000000
 H    -2.888643000000000    -1.760751000000000    2.847496000000000
 H    -1.760749000000000    2.888644000000000    -2.847495000000000
 H    2.888643000000000    1.760751000000000    2.847496000000000
 N    -0.442619617000000    -4.444183278000000    -3.397790218000000
 B    0.786955287000000    -5.074842597000000    -4.071277354000000
 B    -1.792945165000000    -5.112636649000000    -3.702697330000000
 H    1.874104180000000    -4.663903529000000    -3.905873434000000
 N    0.690321679000000    -6.288828309000000    -4.990655276000000
 H    -2.804920142000000    -4.716118049000000    -3.259078917000000
 N    -1.922468348000000    -6.328525535000000    -4.615503347000000
 B    -0.671593423000000    -6.904514184000000    -5.252829861000000
 H    1.547730794000000    -6.692726036000000    -5.429757503000000
 H    -2.857237810000000    -6.755256534000000    -4.803098368000000
 H    -0.759204382000000    -7.844863535000000    -5.962468620000000
 N    -4.423869849000000    0.450653793000000    3.423149001000000
 B    -4.851023243000000    -0.698432960000000    4.350678060000000
 B    -5.273728015000000    1.729232424000000    3.501603608000000
 H    -4.273943811000000    -1.719872121000000    4.392671632000000
 N    -6.044320015000000    -0.593616656000000    5.295882525000000
 H    -5.056218111999999    2.670408102000000    2.834523825999999
 N    -6.471065187000000    1.866093015000000    4.437568212000001
 B    -6.844362787000001    0.695383947000000    5.327919415000000
 H    -6.304656297000000    -1.394246123000000    5.914196365000000
 H    -7.028310831000000    2.749242981000000    4.462238278000000
 H    -7.770097349000000    0.788775217000000    6.055802197000000
 N    0.442619504000000    4.444184468000000    -3.397789979000000
 B    -0.786955223000000    5.074842626000000    -4.071278525000000
 B    1.792944751000000    5.112639213000000    -3.702695415000000
 H    -1.874103904000000    4.663902459000000    -3.905875943000000
 N    -0.690321725000000    6.288828520000000    -4.990656218000000
 H    2.804919593000000    4.716121578000000    -3.259075830000000
 N    1.922467814000000    6.328528314000000    -4.615501163000000
 B    0.671593077000000    6.904515776000000    -5.252829117000000
 H    -1.547730718000000    6.692725435000000    -5.429759431000000
 H    2.857237075000000    6.755260261000000    -4.803095026000000
 H    0.759203948000000    7.844865282000000    -5.962467682000000
 N    4.423869371000000    -0.450653706000000    3.423149618000000
 B    4.851023346000000    0.698433771000000    4.350677513000000
 B    5.273726422000000    -1.729232965000000    3.501606080000000
 H    4.273944761000000    1.719873469000000    4.392669646000000
 N    6.044319631000000    0.593617562000000    5.295882604000000
 H    5.056216003000000    -2.670409240000000    2.834527308000000
 N    6.471063083000000    -1.866093473000000    4.437571349000000
 B    6.844361299000000    -0.695383680000000    5.327921340000000
 H    6.304656330000000    1.394247534000000    5.914195617000000
 H    7.028307969000001    -2.749243883000000    4.462242684000000
 H    7.770095473999999    -0.788774881000000    6.055804622000000




