%nproc=15
%mem=70GB
%chk=BiPhenyl_Nitrile_Triazine_freq.chk
#P B3LYP/6-311++G(d,p) EmpiricalDispersion=GD3 freq(noraman) SCF=YQC

Restart from BiPhenyl_Nitrile_Triazine.log

0 1
 C   0.000000  -3.562385   0.000003
 C   0.405382  -2.849187  -1.137240
 C   0.403268  -1.461813  -1.134942
 C   0.000000  -0.740099   0.000003
 C  -0.403268  -1.461813   1.134949
 C  -0.405382  -2.849187   1.137246
 C  -0.000000   0.740099   0.000003
 C   0.403268   1.461813   1.134949
 C   0.405382   2.849187   1.137246
 C  -0.000000   3.562385   0.000003
 C  -0.405382   2.849187  -1.137240
 C  -0.403268   1.461813  -1.134942
 H   0.728064   3.395526   2.013811
 H  -0.728064  -3.395526   2.013811
 H  -0.728064   3.395526  -2.013805
 H   0.728064  -3.395526  -2.013805
 H   0.743692   0.928442   2.014753
 H  -0.743692  -0.928442   2.014753
 H   0.743692  -0.928442  -2.014746
 H  -0.743692   0.928442  -2.014746
 C  -0.000001  -5.038864   0.000005
 N  -0.396839  -5.677277   1.116308
 C  -0.374734  -7.004393   1.053204
 N   0.396842  -5.677274  -1.116313
 C   0.374739  -7.004379  -1.053218
 N   0.000002  -7.735908  -0.000004
 H   0.690794  -7.544624  -1.941430
 H  -0.690790  -7.544632   1.941419
 C   0.000001   5.038864   0.000005
 N   0.396839   5.677277   1.116308
 C   0.374734   7.004393   1.053204
 N  -0.396842   5.677274  -1.116313
 C  -0.374739   7.004379  -1.053218
 N  -0.000002   7.735908  -0.000004
 H  -0.690794   7.544624  -1.941430
 H   0.690790   7.544632   1.941419






