%nproc=15
%mem=70GB
%chk=BiPhenyl_Nitrile_Triazine.chk
#P B3LYP/6-311++G(d,p) EmpiricalDispersion=GD3 opt SCF=YQC

Comment

0 1
 C    -0.000000000000000    3.577958000000000    -0.000000182000000
 C    1.133739000000000    2.852350000000000    -0.402520182000000
 C    1.135339000000000    1.463226000000000    -0.401762182000000
 C    -0.000000000000000    0.741600000000000    -0.000000182000000
 C    -1.135339000000000    1.463225000000000    0.401761818000000
 C    -1.133738000000000    2.852349000000000    0.402519818000000
 C    -0.000000000000000    -0.741600000000000    -0.000000182000000
 C    -1.135339000000000    -1.463226000000000    -0.401762182000000
 C    -1.133739000000000    -2.852350000000000    -0.402520182000000
 C    -0.000000000000000    -3.577958000000000    -0.000000182000000
 C    1.133738000000000    -2.852349000000000    0.402519818000000
 C    1.135339000000000    -1.463225000000000    0.401761818000000
 H    -2.020512000000000    -3.385811000000000    -0.727052182000000
 H    -2.020512000000000    3.385812000000000    0.727052818000000
 H    2.020512000000000    -3.385812000000000    0.727052818000000
 H    2.020512000000000    3.385811000000000    -0.727052182000000
 H    -2.015826000000000    -0.929067000000000    -0.740072182000000
 H    -2.015827000000000    0.929068000000000    0.740072818000000
 H    2.015826000000000    0.929067000000000    -0.740072182000000
 H    2.015827000000000    -0.929068000000000    0.740072818000000
 C    0.000003208000000    5.057809266000000    -0.000001392000000
 N    -1.116436343000000    5.694529064000000    0.395072670000000
 C    -1.054073771000000    7.022226617000000    0.373004380000000
 N    1.116524516000000    5.694481449000000    -0.395104451000000
 C    1.054235367000000    7.022131187000000    -0.373062278000000
 N    0.000084433000000    7.752717080999999    -0.000030272000000
 H    1.942950897000000    7.562293396000000    -0.687551776000000
 H    -1.942787799000000    7.562392693000000    0.687493292000000
 C    0.000003208000000    -5.057809266000000    0.000000878000000
 N    -1.116436366000000    -5.694529024000000    -0.395073185000000
 C    -1.054073793000000    -7.022226580000000    -0.373005033000000
 N    1.116524538000000    -5.694481489000001    0.395103808000000
 C    1.054235389000000    -7.022131224000000    0.373061504000000
 N    0.000084433000000    -7.752717080999999    0.000029484000000
 H    1.942950936000000    -7.562293466000000    0.687550896000000
 H    -1.942787838000000    -7.562392624000000    -0.687493949000000




