%nproc=15
%mem=70GB
%chk=ETTA_Hydrazide_Hydrazone_freq.chk
#P B3LYP/6-311++G(d,p) EmpiricalDispersion=GD3 freq(noraman) SCF=YQC NoSymm

Restart from ETTA_Hydrazide_Hydrazone.log

0 1
 C  -0.631697  -0.043890  -0.013092
 C   0.709205   0.127883  -0.173357
 C  -1.438890   0.790449   0.920114
 C  -1.031766   1.000694   2.244037
 H  -0.098904   0.570358   2.586963
 C  -1.798933   1.768519   3.112538
 H  -1.434586   1.939596   4.119548
 C  -2.994475   2.352904   2.676988
 C  -3.401566   2.152476   1.353174
 H  -4.314573   2.626480   1.014325
 C  -2.646562   1.365521   0.495358
 H  -2.984508   1.202361  -0.521566
 C   1.438001   1.304477   0.376941
 C   0.967609   2.611551   0.177774
 H   0.048227   2.766329  -0.373201
 C   1.666521   3.703469   0.670956
 H   1.314893   4.712825   0.496055
 C   2.848165   3.521692   1.398153
 C   3.337043   2.222267   1.580591
 H   4.282039   2.053478   2.085231
 C   2.647101   1.131042   1.064124
 H   3.051322   0.132952   1.187881
 C  -1.402541  -1.075097  -0.761916
 C  -2.322356  -1.895512  -0.094778
 H  -2.473026  -1.770148   0.971281
 C  -3.048360  -2.860667  -0.783967
 H  -3.769412  -3.461243  -0.240312
 C  -2.892984  -3.011801  -2.167367
 C  -2.011660  -2.162290  -2.845413
 H  -1.926417  -2.254526  -3.921171
 C  -1.270880  -1.216643  -2.151896
 H  -0.583700  -0.573763  -2.687887
 C   1.556303  -0.844547  -0.918611
 C   1.488456  -2.218785  -0.654809
 H   0.787594  -2.582807   0.086343
 C   2.293146  -3.117910  -1.345049
 H   2.187741  -4.177592  -1.139960
 C   3.185779  -2.665574  -2.324391
 C   3.251736  -1.294593  -2.597172
 H   3.926282  -0.952311  -3.372358
 C   2.465202  -0.396812  -1.889698
 H   2.541403   0.664280  -2.097640
 C  -3.858545   3.227659   3.539826
 O  -4.556959   4.107232   3.082340
 N  -3.796404   2.929506   4.894595
 H  -3.327658   2.079193   5.194153
 N  -4.484628   3.663987   5.802362
 C  -4.467170   3.268035   7.019209
 C  -5.165726   3.993793   8.080942
 H  -3.922502   2.361548   7.318854
 C  -5.107523   3.507871   9.394555
 C  -5.762095   4.175093   10.427402
 H  -4.547088   2.602822   9.607724
 C  -6.482665   5.336529   10.158198
 H  -5.709323   3.788744   11.438916
 C  -6.545508   5.827801   8.850581
 H  -6.993189   5.858073   10.959828
 C  -5.894574   5.166289   7.818294
 H  -7.105912   6.731516   8.639178
 H  -5.938892   5.540250   6.802771
 C   3.556541   4.752890   1.886493
 O   3.467932   5.823018   1.323084
 N   4.303393   4.557041   3.040743
 H   4.204318   3.685081   3.553059
 N   5.036917   5.563108   3.576210
 C   5.616834   5.341578   4.695330
 C   6.442147   6.354280   5.355064
 H   5.519298   4.374995   5.209506
 C   7.056237   6.046462   6.577037
 C   7.847631   6.988350   7.230448
 H   6.912991   5.064524   7.017394
 C   8.033911   8.249584   6.669024
 H   8.316937   6.737631   8.174960
 C   7.424677   8.564532   5.450497
 H   8.649006   8.984911   7.175194
 C   6.635474   7.628918   4.795729
 H   7.567984   9.545836   5.012372
 H   6.159475   7.865588   3.852061
 C  -3.670838  -4.000059  -2.988604
 O  -3.950248  -3.804452  -4.152269
 N  -4.023850  -5.154394  -2.302046
 H  -3.620294  -5.329015  -1.385942
 N  -4.767163  -6.119638  -2.895991
 C  -4.967037  -7.200070  -2.239846
 C  -5.763954  -8.301043  -2.782741
 H  -4.546618  -7.345892  -1.234783
 C  -5.951304  -9.455769  -2.010344
 C  -6.703802  -10.521500  -2.498573
 H  -5.505224  -9.519018  -1.022595
 C  -7.277750  -10.444601  -3.765567
 H  -6.841048  -11.408864  -1.891153
 C  -7.095490  -9.296301  -4.542327
 H  -7.863667  -11.272433  -4.148516
 C  -6.346644  -8.231774  -4.059689
 H  -7.540870  -9.234940  -5.528897
 H  -6.200064  -7.339364  -4.655687
 C   4.059233  -3.574554  -3.141182
 O   4.419320  -3.294912  -4.264955
 N   4.425507  -4.745977  -2.491777
 H   4.233029  -4.843384  -1.498829
 N   5.173511  -5.686376  -3.118925
 C   5.563401  -6.689981  -2.427129
 C   6.364529  -7.768238  -3.008075
 H   5.310018  -6.784408  -1.361738
 C   6.758746  -8.841150  -2.196562
 C   7.522129  -9.882664  -2.718959
 H   6.466064  -8.859344  -1.151265
 C   7.900168  -9.863067  -4.059604
 H   7.820559  -10.706514  -2.080664
 C   7.510923  -8.796492  -4.875735
 H   8.494306  -10.672094  -4.469150
 C   6.749966  -7.756616  -4.359462
 H   7.804333  -8.779499  -5.919318
 H   6.444934  -6.926743  -4.985054






