%nproc=15
%mem=70GB
%chk=P_Aldehyde_Benzobisoxazole.chk
#P B3LYP/6-311++G(d,p) EmpiricalDispersion=GD3 opt SCF=YQC

Comment

0 1
 C    3.834450000000000    2.028850000000000    0.170710000000000
 C    4.206330000000000    0.766460000000000    -0.028510000000000
 C    3.061750000000000    -0.118750000000000    -0.027720000000000
 C    2.370940000000000    1.922770000000000    0.075610000000000
 N    1.928970000000000    0.690610000000000    -0.011520000000000
 C    1.610010000000000    3.228620000000000    0.050410000000000
 C    0.261520000000000    3.197680000000000    0.091160000000000
 N    -0.610890000000000    2.132640000000000    0.135180000000000
 C    -1.936010000000000    2.503710000000000    0.103780000000000
 C    -0.610970000000000    4.367110000000000    0.089560000000000
 C    -1.888450000000000    3.964100000000000    0.143740000000000
 C    -3.061790000000000    1.761380000000000    0.025080000000000
 C    -2.951580000000000    0.254180000000000    -0.012510000000000
 N    -1.879610000000000    -0.503420000000000    -0.000070000000000
 C    -3.782560000000000    -1.754340000000000    0.057960000000000
 C    -4.212200000000000    -0.502070000000000    -0.047320000000000
 C    -0.176010000000000    -3.028340000000000    -0.060020000000000
 N    0.671370000000000    -1.928970000000000    -0.029400000000000
 C    1.995920000000000    -2.349370000000000    -0.010440000000000
 C    1.965000000000000    -3.733700000000000    0.015910000000000
 C    0.639340000000000    -4.146480000000000    -0.126480000000000
 C    3.147630000000000    -1.476470000000000    -0.015980000000000
 C    -1.620780000000000    -2.974640000000000    -0.017310000000000
 C    -2.336100000000000    -1.819480000000000    0.013870000000000
 H    4.463900000000001    2.885230000000000    0.286010000000000
 H    5.237850000000000    0.476960000000000    -0.118110000000000
 C    2.358930000000000    4.521340000000000    -0.050440000000000
 H    -0.306820000000000    1.166360000000000    0.052270000000000
 H    -0.301730000000000    5.398590000000000    0.063860000000000
 H    -2.734880000000000    4.629900000000000    0.185090000000000
 C    -4.397420000000000    2.434930000000000    -0.006460000000000
 H    -4.450990000000000    -2.596530000000000    0.127720000000000
 H    -5.226140000000000    -0.160350000000000    -0.095230000000000
 H    0.368460000000000    -0.960990000000000    -0.016620000000000
 H    2.820260000000000    -4.392510000000000    0.077770000000000
 H    0.310690000000000    -5.174130000000000    -0.203890000000000
 C    4.531580000000000    -2.102480000000000    -0.035610000000000
 C    -2.374400000000000    -4.291369999999999    0.032450000000000
 C    -4.741190000000000    3.311750000000000    -1.050370000000000
 C    -5.977000000000000    3.965120000000000    -1.062590000000000
 H    -4.031900000000000    3.519110000000000    -1.850140000000000
 C    -6.911260000000000    3.708380000000000    -0.062580000000000
 H    -6.208570000000000    4.674480000000000    -1.853500000000000
 C    -6.599060000000000    2.823450000000000    0.966560000000000
 C    -5.340520000000000    2.215570000000000    1.011330000000000
 H    -7.333480000000000    2.610180000000000    1.739570000000000
 H    -5.112220000000000    1.548090000000000    1.840350000000000
 C    3.256720000000000    4.734290000000000    -1.112880000000000
 C    4.070410000000000    5.869650000000000    -1.151690000000000
 H    3.370520000000000    3.985610000000000    -1.895730000000000
 C    3.946060000000000    6.847820000000000    -0.169600000000000
 H    4.807020000000000    5.983140000000000    -1.943480000000000
 C    3.020070000000000    6.683940000000000    0.858240000000000
 C    2.251750000000000    5.517520000000001    0.933110000000000
 H    2.906760000000000    7.458130000000000    1.613260000000000
 H    1.565100000000000    5.396900000000000    1.768870000000000
 C    4.872220000000000    -3.027410000000000    -1.039010000000000
 C    6.122890000000000    -3.651820000000000    -1.053390000000000
 H    4.145120000000000    -3.295470000000000    -1.803690000000000
 C    7.080580000000000    -3.314800000000000    -0.101320000000000
 H    6.344820000000000    -4.401200000000000    -1.808820000000000
 C    6.772130000000000    -2.389760000000000    0.892460000000000
 C    5.494670000000000    -1.823420000000000    0.950700000000000
 H    7.522030000000000    -2.113930000000000    1.629310000000000
 H    5.266900000000000    -1.133430000000000    1.760630000000000
 C    -3.297960000000000    -4.666250000000000    -0.957890000000000
 C    -3.944920000000000    -5.905850000000000    -0.903880000000000
 H    -3.528960000000000    -3.989670000000000    -1.777670000000000
 C    -3.627980000000000    -6.818279999999999    0.100320000000000
 H    -4.684150000000000    -6.165690000000000    -1.657210000000000
 C    -2.689640000000000    -6.480600000000001    1.070970000000000
 C    -2.091670000000000    -5.217730000000000    1.053630000000000
 H    -2.411560000000000    -7.200630000000000    1.836380000000000
 H    -1.358000000000000    -4.974810000000000    1.820860000000000
 H    -13.414351898000000    5.997890769000000    0.773601554000000
 C    -12.417378622999999    5.849093382000000    0.362280095000000
 C    -12.040105114999999    6.546247675000000    -0.793132554000000
 H    -12.746678525000000    7.226534658000000    -1.264837349000000
 C    -10.764606049999999    6.382411109000000    -1.355428054000000
 H    -10.468905270000000    6.919380874000000    -2.249644091000000
 C    -9.876067094000000    5.498788130000000    -0.729723649000000
 N    -8.590968663000000    5.137804697000000    -1.043337406000000
 C    -10.288251381000000    4.828804867000000    0.409714012000000
 O    -9.259346023999999    4.035297273000000    0.822810734000000
 C    -11.539116538000002    4.963474690000000    0.999320317000000
 H    -11.812467974000000    4.415448664000000    1.891860862000000
 C    -8.268325497999999    4.268129507000000    -0.100359426000000
 H    6.553161517000000    13.088341187999999    0.524902206000000
 C    6.374761557000000    12.083519108999999    0.145708641000000
 C    7.100995533000000    11.628929410000000    -0.963015949000000
 H    7.833014233000000    12.284326160000001    -1.431145738000000
 C    6.900740587000000    10.340736570000001    -1.482990639000000
 H    7.460045855000000    9.985322511000000    -2.341044404000000
 C    5.950760233000000    9.519137713999998    -0.863063470000000
 N    5.542904637000000    8.240299421000000    -1.143004606000000
 C    5.253959712000000    10.006696535000000    0.229569621000000
 O    4.396170873000000    9.032373936999999    0.646514724000000
 C    5.422801112000000    11.272722864000000    0.776474653000000
 H    4.851476018000000    11.606265406000000    1.633223838000000
 C    4.620313042000000    7.995618387000000    -0.227255208000000
 H    13.535903877999999    -5.650727508000000    0.655557356000000
 C    12.524616984000000    -5.542661798000000    0.267095855000000
 C    12.131079817000000    -6.300473665000000    -0.843844049000000
 H    12.839508629999999    -6.986432979000000    -1.304420005000000
 C    10.836862216000000    -6.190380887000000    -1.375630563000000
 H    10.528517678000000    -6.774379318000000    -2.235437099000000
 C    9.946259706999998    -5.298157798000000    -0.765251846000000
 N    8.644924359999999    -4.979883998000000    -1.057431090000000
 C    10.374857896000000    -4.567466641000000    0.329958484000000
 O    9.340068887999999    -3.778101607000000    0.736239160000000
 C    11.644557519000001    -4.647699639999999    0.888403406000000
 H    11.930267119000000    -4.053219232000000    1.746683795000000
 C    8.329083042000001    -4.074705986000000    -0.146092489000000
 H    -6.137879468000000    -13.341430602000001    1.046127104000000
 C    -5.994049713000000    -12.346642158000000    0.627808242000000
 C    -6.735786797000000    -11.960641369999999    -0.496543699000000
 H    -7.445152865000000    -12.658377527000001    -0.937571831000000
 C    -6.579846692000000    -10.687601403000000    -1.066603730000000
 H    -7.151274652000000    -10.385180533000000    -1.936896499000000
 C    -5.658270523000000    -9.810534077000000    -0.480730603000000
 N    -5.294445720000000    -8.530399932000000    -0.810925527000000
 C    -4.944829029000000    -10.231091105000001    0.628875031000000
 O    -4.120680934000000    -9.212559209000000    1.006131088000000
 C    -5.070121660000000    -11.479873099000001    1.224929127000000
 H    -4.487428619000000    -11.760092439999999    2.093046688000000
 C    -4.380425796000000    -8.218885757000001    0.093047657000000




