%nproc=15
%mem=70GB
%chk=ExtendedTrisPhenyl_Aldehyde_Hydrazone.chk
#P B3LYP/6-311++G(d,p) EmpiricalDispersion=GD3 opt SCF=YQC

Comment

0 1
 C    2.406280000000000    -1.304070000000000    -0.188810000000000
 C    1.203390000000000    -0.548970000000000    -0.106440000000000
 C    -0.027230000000000    -1.203660000000000    -0.047250000000000
 H    -0.068540000000000    -2.290310000000000    -0.082140000000000
 C    -1.205400000000000    -0.462500000000000    0.059980000000000
 C    -2.456090000000000    -1.145820000000000    0.109240000000000
 C    -1.153500000000000    0.928000000000000    0.109830000000000
 H    -2.069380000000000    1.508030000000000    0.195200000000000
 C    0.083700000000000    1.572160000000000    0.044410000000000
 C    0.148000000000000    2.991420000000000    0.079300000000000
 C    1.263040000000000    0.839400000000000    -0.064700000000000
 H    2.222880000000000    1.348280000000000    -0.114060000000000
 C    0.175490000000000    4.190400000000000    0.090480000000000
 C    0.127670000000000    5.611430000000000    0.085080000000000
 C    -3.456150000000000    -1.808590000000000    0.128860000000000
 C    -4.564140000000000    -2.707110000000000    0.127640000000000
 C    3.394430000000000    -1.983070000000000    -0.219750000000000
 C    4.502070000000000    -2.877030000000000    -0.213360000000000
 C    -1.117180000000000    6.242170000000000    0.077500000000000
 C    -1.189510000000000    7.632000000000000    0.064410000000000
 H    -2.030180000000000    5.651340000000000    0.079790000000000
 C    -0.016980000000000    8.387359999999999    0.058750000000000
 H    -2.159150000000000    8.121460000000001    0.057590000000000
 C    1.227970000000000    7.755110000000000    0.065810000000000
 C    1.302670000000000    6.362820000000000    0.078900000000000
 H    2.139400000000000    8.346740000000000    0.060060000000000
 H    2.273040000000000    5.872360000000000    0.082380000000000
 C    4.252440000000000    -4.250540000000001    -0.198640000000000
 C    5.314610000000000    -5.149730000000000    -0.169460000000000
 H    3.229840000000000    -4.620520000000000    -0.204530000000000
 C    6.625220000000000    -4.673790000000000    -0.155500000000000
 H    5.116950000000000    -6.217720000000000    -0.154560000000000
 C    6.874820000000000    -3.299950000000000    -0.171320000000000
 C    5.811540000000000    -2.397060000000000    -0.200240000000000
 H    7.897730000000000    -2.933230000000000    -0.157900000000000
 H    6.009820000000000    -1.328100000000000    -0.207300000000000
 C    -4.315700000000000    -4.082170000000000    0.120760000000000
 C    -5.377930000000000    -4.983700000000000    0.105750000000000
 H    -3.293760000000000    -4.454150000000001    0.124030000000000
 C    -6.689040000000000    -4.509870000000000    0.098020000000000
 H    -5.180530000000000    -6.052100000000000    0.098250000000000
 C    -6.938440000000000    -3.136120000000000    0.105990000000000
 C    -5.875190000000000    -2.231340000000000    0.120820000000000
 H    -7.961900000000000    -2.770510000000000    0.098710000000000
 H    -6.075870000000000    -1.163000000000000    0.123970000000000
 H    -0.648666100000000    16.608422203000000    -0.425724455000000
 C    0.339405795000000    16.170439933000001    -0.304647190000000
 C    1.454794148000000    16.999218807999998    -0.200399365000000
 H    1.336781627000000    18.079388079000001    -0.237230660000000
 C    2.723160233000000    16.442464353999998    -0.060094421000000
 H    3.597736072000000    17.084428000999999    0.010437637000000
 C    2.874143741000000    15.054890273000000    -0.016164044000000
 H    3.873093697000000    14.633244727999999    0.088286190000000
 C    1.758849761000000    14.207361740000000    -0.112847771000000
 C    2.003669432000000    12.729657945000000    -0.078556279000000
 C    0.487734989000000    14.779735716999999    -0.267711709000000
 H    -0.406336713000000    14.179063899999999    -0.386342536000000
 O    3.157806669000000    12.315850046000000    -0.163419053000000
 N    0.887222195000000    11.913993779000000    0.052462650000000
 H    -0.038281884000000    12.290651864000001    0.193811758000000
 N    1.042979467000000    10.559749042000000    0.032271900000000
 C    -0.045756507000000    9.862691933000001    0.083865970000000
 H    -1.040689419000000    10.339934573000001    0.137063377000000
 H    13.709923859000000    -8.877690599999999    -0.750308830000000
 C    12.785448574000002    -9.435299787000002    -0.619191775000000
 C    12.824343391999999    -10.824783449000000    -0.520929083000000
 H    13.775676124000000    -11.348581704000001    -0.572412831000000
 C    11.641894674000000    -11.543658981000000    -0.367806498000000
 H    11.665793339000000    -12.628580784000000    -0.301863136000000
 C    10.420130727000000    -10.870277239000000    -0.305056095000000
 H    9.502556509000000    -11.446109780000000    -0.190730811000000
 C    10.365936774000000    -9.470129313999999    -0.395509549000000
 C    9.016375168000000    -8.821737299000000    -0.340807189000000
 C    11.562555221000000    -8.757919675000000    -0.563406225000000
 H    11.583014148000002    -7.680572064000000    -0.678069512000000
 O    8.013559845000000    -9.528347778000001    -0.415201329000000
 N    8.991933381999999    -7.439848982000000    -0.204001841000000
 H    9.833746976000000    -6.899257409000000    -0.071641319000000
 N    7.793856139000000    -6.789268814999999    -0.205781906000000
 C    7.849513909000000    -5.497886739000000    -0.149825416000000
 H    8.812366728000001    -4.957903462000000    -0.107228327000000
 H    -13.167854610999999    -9.611868330000000    -0.364776758000000
 C    -13.353806233000000    -8.546968629000002    -0.245676539000000
 C    -14.663016058000000    -8.081468877000001    -0.140259151000000
 H    -15.494735246999999    -8.780853991000001    -0.174212152000000
 C    -14.906290376999999    -6.717559980000000    -0.002477972000000
 H    -15.926312415999998    -6.348198443000000    0.068950922000000
 C    -13.837536405000000    -5.819654673000000    0.037755520000000
 H    -14.043142496000000    -4.754847408000000    0.140261397000000
 C    -12.512790329000000    -6.274622951000000    -0.060146074000000
 C    -11.421410612000001    -5.248613992000000    -0.029863905000000
 C    -12.280985979000000    -7.649541042000000    -0.212443678000000
 H    -11.284494456999997    -8.058186745000000    -0.331848237000000
 O    -11.720225581999999    -4.059653954000000    -0.116783819000000
 N    -10.122116761999999    -5.721788686000000    0.100019220000000
 H    -9.919613607000000    -6.700011375000000    0.243132902000000
 N    -9.083814585000001    -4.838607689000000    0.076213381000000
 C    -7.898610277000000    -5.354953334000000    0.126952954000000
 H    -7.741166387000000    -6.447032760000000    0.182233591000000




