%nproc=15
%mem=70GB
%chk=F_PrimaryAmine_Imide.chk
#P B3LYP/6-311++G(d,p) EmpiricalDispersion=GD3 opt SCF=YQC NoSymm

Comment

0 1
 F    1.342850000000000    -2.363239000000000    -0.181050000000000
 C    0.684160000000000    -1.200169000000000    -0.092040000000000
 C    -0.709070000000000    -1.188689000000000    -0.034700000000000
 F    -1.391880000000000    -2.340709000000000    -0.068500000000000
 C    -1.404610000000000    0.011571000000000    0.057810000000000
 C    -0.684160000000000    1.200171000000000    0.092040000000000
 F    -1.342850000000000    2.363241000000000    0.181050000000000
 C    0.709070000000000    1.188691000000000    0.034700000000000
 F    1.391880000000000    2.340711000000000    0.068500000000000
 C    1.404610000000000    -0.011579000000000    -0.057810000000000
 C    -5.017266462000000    0.711124368000000    0.052813978000000
 C    -6.190813580000000    1.433920395000000    -0.060237431000000
 H    -6.175945351000000    2.495318175000000    -0.287492278000000
 C    -7.391706922000000    0.742938034000000    0.128052618000000
 H    -8.338667158000000    1.273977038000000    0.047238928000000
 C    -7.390818509000000    -0.635350670000000    0.421240710000000
 H    -8.337066989000000    -1.154312946000000    0.564594271000000
 C    -6.189057313000000    -1.341894363000000    0.528972841000000
 H    -6.172783853000000    -2.403738727000000    0.754068749000000
 C    -5.016479130000000    -0.634456536000000    0.336575481000000
 C    -3.627743922000000    -1.078834346000000    0.379824005000000
 C    -3.629086027000000    1.136325129000000    -0.089031654000000
 N    -2.835100597000000    0.022817528000000    0.115067163000000
 O    -3.364471891000000    2.295714866000000    -0.354459613000000
 O    -3.360830980000000    -2.241236057000000    0.629140120000000
 C    5.017266462000000    -0.711124368000000    -0.052813978000000
 C    6.190813580000000    -1.433920395000000    0.060237431000000
 H    6.175945351000000    -2.495318175000000    0.287492278000000
 C    7.391706922000000    -0.742938034000000    -0.128052618000000
 H    8.338667158000000    -1.273977038000000    -0.047238928000000
 C    7.390818509000000    0.635350670000000    -0.421240710000000
 H    8.337066989000000    1.154312946000000    -0.564594271000000
 C    6.189057313000000    1.341894363000000    -0.528972841000000
 H    6.172783853000000    2.403738727000000    -0.754068749000000
 C    5.016479130000000    0.634456536000000    -0.336575481000000
 C    3.627743922000000    1.078834346000000    -0.379824005000000
 C    3.629086027000000    -1.136325129000000    0.089031654000000
 N    2.835100597000000    -0.022817528000000    -0.115067163000000
 O    3.364471891000000    -2.295714866000000    0.354459613000000
 O    3.360830980000000    2.241236057000000    -0.629140120000000




