%nproc=15
%mem=70GB
%chk=F_PrimaryAmine_Imide_freq.chk
#P B3LYP/6-311++G(d,p) EmpiricalDispersion=GD3 freq(noraman) SCF=YQC NoSymm

Restart from F_PrimaryAmine_Imide.log

0 1
 F   1.281830  -1.824268  -1.559317
 C   0.657578  -0.936640  -0.780218
 C  -0.728516  -0.926322  -0.727732
 F  -1.422997  -1.804071  -1.456981
 C  -1.403778   0.010440   0.053166
 C  -0.657578   0.936639   0.780219
 F  -1.281830   1.824268   1.559317
 C   0.728516   0.926321   0.727733
 F   1.422997   1.804071   1.456981
 C   1.403778  -0.010441  -0.053165
 C  -5.014597   0.660407  -0.122612
 C  -6.201578   1.316878  -0.404036
 H  -6.199119   2.284832  -0.889948
 C  -7.390775   0.680141  -0.034910
 H  -8.340350   1.161748  -0.237295
 C  -7.376359  -0.570397   0.592998
 H  -8.315015  -1.038030   0.866568
 C  -6.172284  -1.224863   0.871888
 H  -6.147550  -2.193033   1.356744
 C  -5.000289  -0.585890   0.501466
 C  -3.588683  -1.025378   0.669871
 C  -3.613363   1.078935  -0.397369
 N  -2.809818   0.020877   0.106334
 O  -3.195477   2.072453  -0.931205
 O  -3.146516  -2.025230   1.171343
 C   5.014597  -0.660407   0.122612
 C   6.201579  -1.316878   0.404035
 H   6.199119  -2.284832   0.889947
 C   7.390775  -0.680141   0.034909
 H   8.340350  -1.161747   0.237293
 C   7.376359   0.570398  -0.592999
 H   8.315014   1.038031  -0.866569
 C   6.172284   1.224863  -0.871888
 H   6.147549   2.193034  -1.356743
 C   5.000289   0.585890  -0.501466
 C   3.588682   1.025377  -0.669870
 C   3.613363  -1.078935   0.397369
 N   2.809818  -0.020877  -0.106334
 O   3.195478  -2.072453   0.931205
 O   3.146515   2.025230  -1.171342






