%nproc=15
%mem=70GB
%chk=PMDA_Aldehyde_Azine.chk
#P B3LYP/6-311++G(d,p) EmpiricalDispersion=GD3 opt SCF=YQC NoSymm

Comment

0 1
 C    2.594721975000000    -0.803042738000000    -0.463296744000000
 C    1.192502366000000    -0.497212196000000    -0.218045132000000
 C    0.065053697000000    -1.207654423000000    -0.591075722000000
 H    0.117972119000000    -2.139694743000000    -1.142514618000000
 C    -1.136014647000000    -0.628168196000000    -0.220766459000000
 C    -2.493796812000000    -1.086064864000000    -0.477627101000000
 C    -1.212416318000000    0.572343425000000    0.469936694000000
 C    -2.634581919000000    0.879079250000000    0.641083051000000
 C    -0.077288290000000    1.277983164000000    0.852371574000000
 H    -0.130718641000000    2.219027793000000    1.389272092000000
 C    1.131286774000000    0.698479109000000    0.482625637000000
 C    2.510597082000000    1.145897664000000    0.689299179000000
 N    -3.354717750000000    -0.136510250000000    0.035418250000000
 N    3.344032250000000    0.208749750000000    0.102548250000000
 O    -2.977386949000000    1.885929367000000    1.234317595000000
 O    -2.674622336000000    -2.137303305000000    -1.063707033000000
 O    2.734903026000000    2.186746473000000    1.279923781000000
 O    2.894996663000000    -1.814846508000000    -1.070204593000000
 C    -4.779157750000000    -0.244520250000000    -0.079881750000000
 C    4.776282250000000    0.250709750000000    0.090598250000000
 C    -5.598447750000000    0.885339750000000    -0.236421750000000
 C    -6.987337750000000    0.768939750000000    -0.396281750000000
 H    -5.191987750000000    1.892079750000000    -0.255001750000000
 C    -7.593107750000001    -0.481480250000000    -0.397281750000000
 H    -7.592377750000001    1.663179750000000    -0.526491750000000
 C    -6.810587750000000    -1.614680250000000    -0.229201750000000
 C    -5.424057750000000    -1.494860250000000    -0.070921750000000
 H    -7.269907750000000    -2.600490250000000    -0.224171750000000
 H    -4.878867750000000    -2.424760250000000    0.057408250000000
 C    5.483312250000000    1.458609750000000    0.205788250000000
 C    6.885602250000000    1.492349750000000    0.200838250000000
 H    4.976532250000000    2.412839750000000    0.314018250000000
 C    7.616882250000000    0.317529750000000    0.076798250000000
 H    7.402702250000000    2.444229750000000    0.296648250000000
 C    6.945222250000000    -0.890780250000000    -0.041811750000000
 C    5.544762250000000    -0.921110250000000    -0.033961750000000
 H    7.503602250000000    -1.818700250000000    -0.141941750000000
 H    5.089732250000000    -1.901230250000000    -0.138591750000000
 C    -9.060410048000000    -0.614361458000000    -0.464600607000000
 N    -9.845537198000001    0.398923909000000    -0.654041848000000
 H    -9.472761492000000    -1.633670145000000    -0.348589973000000
 N    -11.174535255000000    -0.017101710000000    -0.694060873000000
 C    -11.968295349000000    0.987410423000000    -0.890924939000000
 C    -13.430648517000000    0.823887656000000    -1.000316264000000
 H    -11.570335860000000    2.013904047000000    -0.991044208000000
 C    -14.219257597000000    1.955772371000000    -1.227381156000000
 C    -15.603724903000000    1.822442957000000    -1.350594435000000
 H    -13.768220630000000    2.940706827000000    -1.313087476000000
 C    -16.196866922000002    0.563488323000000    -1.246479485000000
 H    -16.220925910999998    2.699314069000000    -1.530101522000000
 C    -15.409149568000000    -0.565148958000000    -1.016990878000000
 H    -17.274933883999999    0.461145074000000    -1.345337267000000
 C    -14.024596342000001    -0.437329459000000    -0.893250985000000
 H    -15.872454484000000    -1.545325550000000    -0.936691533000000
 H    -13.415779278000000    -1.320886098000000    -0.717516588000000
 C    9.060410048000000    0.614361458000000    0.464600607000000
 N    9.845537198000001    -0.398923909000000    0.654041848000000
 H    9.472761492000000    1.633670145000000    0.348589973000000
 N    11.174535255000000    0.017101710000000    0.694060873000000
 C    11.968295349000000    -0.987410423000000    0.890924939000000
 C    13.430648517000000    -0.823887656000000    1.000316264000000
 H    11.570335860000000    -2.013904047000000    0.991044208000000
 C    14.219257597000000    -1.955772371000000    1.227381156000000
 C    15.603724903000000    -1.822442957000000    1.350594435000000
 H    13.768220630000000    -2.940706827000000    1.313087476000000
 C    16.196866922000002    -0.563488323000000    1.246479485000000
 H    16.220925910999998    -2.699314069000000    1.530101522000000
 C    15.409149568000000    0.565148958000000    1.016990878000000
 H    17.274933883999999    -0.461145074000000    1.345337267000000
 C    14.024596342000001    0.437329459000000    0.893250985000000
 H    15.872454484000000    1.545325550000000    0.936691533000000
 H    13.415779278000000    1.320886098000000    0.717516588000000




