%nproc=15
%mem=70GB
%chk=TetraPhenylSilane_Aldehyde_Imine_freq.chk
#P B3LYP/6-311++G(d,p) EmpiricalDispersion=GD3 freq(noraman) SCF=YQC

Restart from TetraPhenylSilane_Aldehyde_Imine-2.log

0 1
Si   0.000000  -0.000000  -0.015839
 C  -3.271536   2.025556   2.707710
 C  -2.022433  -3.272005  -2.740968
 C   3.271537  -2.025555   2.707711
 C   2.022433   3.272004  -2.740970
 C  -3.649249   1.321485   1.554398
 C  -1.320160  -3.649482  -1.586491
 C   3.649250  -1.321485   1.554399
 C   1.320159   3.649482  -1.586494
 C  -2.687666   0.709222   0.762321
 C  -0.707840  -2.687889  -0.794479
 C   2.687666  -0.709222   0.762321
 C   0.707839   2.687889  -0.794481
 C  -1.320575   0.774118   1.087823
 C  -0.773508  -1.320733  -1.119564
 C   1.320576  -0.774118   1.087823
 C   0.773509   1.320733  -1.119565
 C  -0.954691   1.472989   2.248840
 C  -1.471915  -0.954911  -2.280908
 C   0.954692  -1.472989   2.248840
 C   1.471916   0.954910  -2.280908
 C  -1.913415   2.091895   3.045520
 C  -2.089230  -1.913838  -3.078559
 C   1.913416  -2.091895   3.045520
 C   2.089231   1.913837  -3.078559
 H  -4.700673   1.264897   1.299693
 H  -1.264180  -4.700821  -1.331304
 H   4.700674  -1.264896   1.299693
 H   1.264179   4.700821  -1.331307
 H  -3.004306   0.163146  -0.120075
 H  -0.162581  -3.004529   0.088420
 H   3.004307  -0.163145  -0.120075
 H   0.162580   3.004529   0.088418
 H   0.088913   1.528435   2.541969
 H  -1.527526   0.088698  -2.573992
 H  -0.088912  -1.528435   2.541969
 H   1.527528  -0.088699  -2.573992
 H  -1.608851   2.628631   3.938932
 H  -2.624253  -1.609488  -3.973070
 H   1.608852  -2.628631   3.938933
 H   2.624254   1.609486  -3.973070
 C  -8.311293   4.492850   5.881196
 C  -8.418923   4.617896   4.494814
 C  -7.265604   3.748301   6.425275
 C  -6.321698   3.147972   5.595782
 C  -6.416677   3.285298   4.201518
 C  -7.491314   4.005344   3.659595
 C  -4.260539   2.686537   3.568059
 N  -5.510425   2.685338   3.310834
 H  -9.235890   5.185584   4.063485
 H  -7.188732   3.625454   7.500034
 H  -5.529420   2.543104   6.022049
 H  -7.572592   4.081768   2.581746
 H  -3.854588   3.202604   4.449587
 H  -9.044672   4.957867   6.529782
 C  -4.655143  -8.295515  -5.805712
 C  -3.369871  -8.555434  -5.326352
 C  -5.287551  -7.100631  -5.464829
 C  -4.637600  -6.161523  -4.667943
 C  -3.338263  -6.411557  -4.197748
 C  -2.722093  -7.631000  -4.514513
 C  -2.681563  -4.261310  -3.602410
 N  -2.638410  -5.515645  -3.371886
 H  -2.875894  -9.487544  -5.577182
 H  -6.295457  -6.901740  -5.812192
 H  -5.146008  -5.248786  -4.378645
 H  -1.730929  -7.827581  -4.123150
 H  -3.208661  -3.854270  -4.476879
 H  -5.164511  -9.024616  -6.425158
 C   8.311293  -4.492847   5.881199
 C   8.418925  -4.617893   4.494816
 C   7.265604  -3.748299   6.425277
 C   6.321699  -3.147970   5.595783
 C   6.416678  -3.285296   4.201519
 C   7.491315  -4.005342   3.659597
 C   4.260540  -2.686535   3.568060
 N   5.510426  -2.685337   3.310835
 H   9.235892  -5.185581   4.063488
 H   7.188732  -3.625452   7.500036
 H   5.529420  -2.543102   6.022050
 H   7.572593  -4.081766   2.581748
 H   3.854589  -3.202603   4.449588
 H   9.044673  -4.957864   6.529785
 C   4.655141   8.295513  -5.805716
 C   3.369869   8.555432  -5.326357
 C   5.287549   7.100630  -5.464832
 C   4.637599   6.161522  -4.667946
 C   3.338262   6.411555  -4.197751
 C   2.722091   7.630998  -4.514517
 C   2.681563   4.261308  -3.602412
 N   2.638409   5.515644  -3.371889
 H   2.875891   9.487541  -5.577188
 H   6.295456   6.901739  -5.812195
 H   5.146007   5.248786  -4.378646
 H   1.730927   7.827579  -4.123155
 H   3.208662   3.854268  -4.476881
 H   5.164509   9.024613  -6.425162






