%nproc=15
%mem=70GB
%chk=TetraPhenylSilane_Aldehyde_Imine.chk
#P B3LYP/6-311++G(d,p) EmpiricalDispersion=GD3 opt SCF=YQC

Comment

0 1
Si    -0.000000000000000    0.000000000000000    -0.000000000000000
 C    -0.334711000000000    -3.282421000000000    -2.523411000000000
 C    -3.282421000000000    0.334711000000000    2.523412000000000
 C    0.334711000000000    3.282422000000000    -2.523411000000000
 C    3.282421000000000    -0.334711000000000    2.523412000000000
 C    -1.442915000000000    -2.894269000000000    -1.866366000000000
 C    -2.894268000000000    1.442915000000000    1.866365000000000
 C    1.442915000000000    2.894269000000000    -1.866366000000000
 C    2.894269000000000    -1.442914000000000    1.866365000000000
 C    -1.355721000000000    -1.850757000000000    -1.055712000000000
 C    -1.850756000000000    1.355721000000000    1.055713000000000
 C    1.355722000000000    1.850757000000000    -1.055712000000000
 C    1.850757000000000    -1.355721000000000    1.055713000000000
 C    -0.132197000000000    -1.201023000000000    -0.847056000000000
 C    -1.201023000000000    0.132197000000000    0.847056000000000
 C    0.132198000000000    1.201023000000000    -0.847056000000000
 C    1.201024000000000    -0.132198000000000    0.847056000000000
 C    0.964755000000000    -1.566674000000000    -1.552049000000000
 C    -1.566674000000000    -0.964756000000000    1.552050000000000
 C    -0.964756000000000    1.566674000000000    -1.552049000000000
 C    1.566675000000000    0.964754000000000    1.552050000000000
 C    0.874751000000000    -2.604561000000000    -2.363589000000000
 C    -2.604559000000000    -0.874752000000000    2.363589000000000
 C    -0.874750000000000    2.604559000000000    -2.363589000000000
 C    2.604560000000000    0.874750000000000    2.363589000000000
 H    -2.387983000000000    -3.392116000000000    -1.994223000000000
 H    -3.392115000000000    2.387984000000000    1.994223000000000
 H    2.387983000000000    3.392116000000000    -1.994223000000000
 H    3.392116000000000    -2.387983000000000    1.994223000000000
 H    -2.258597000000000    -1.552610000000000    -0.616202000000000
 H    -1.552610000000000    2.258597000000000    0.616202000000000
 H    2.258598000000000    1.552609000000000    -0.616202000000000
 H    1.552610000000000    -2.258598000000000    0.616202000000000
 H    1.907010000000000    -1.051950000000000    -1.461484000000000
 H    -1.051950000000000    -1.907011000000000    1.461484000000000
 H    -1.907010000000000    1.051952000000000    -1.461484000000000
 H    1.051951000000000    1.907009000000000    1.461484000000000
 H    1.760751000000000    -2.888643000000000    -2.847495000000000
 H    -2.888643000000000    -1.760751000000000    2.847496000000000
 H    -1.760749000000000    2.888644000000000    -2.847495000000000
 H    2.888643000000000    1.760751000000000    2.847496000000000
 C    -1.708808892000000    -8.272605899000000    -6.365421824000000
 C    -2.328765550000000    -8.352952563000001    -5.117038949000000
 C    -1.014601750000000    -7.115127682000000    -6.715402542000000
 C    -0.921082117000000    -6.051743624000000    -5.821263982999999
 C    -1.528404999000000    -6.135146012000000    -4.557645113000000
 C    -2.256020523000000    -7.287715027000000    -4.226445090000000
 C    -0.416979816000000    -4.421499848000000    -3.443610444000000
 N    -1.490187758000000    -5.090529965000000    -3.619354540000000
 H    -2.880540645000000    -9.244952587000000    -4.842111200000000
 H    -0.551761551000000    -7.034617468000000    -7.692823198000000
 H    -0.408820367000000    -5.141396049000000    -6.111183751000000
 H    -2.745533926000000    -7.331217354000000    -3.260703911000000
 H    0.514274148000000    -4.678021769000000    -3.967684405000000
 H    -1.780199433000000    -9.097844362000000    -7.064432848000000
 C    -8.529989004999999    1.607012251000000    6.044124582000000
 C    -7.583691433000000    2.633014216000000    6.077328826000000
 C    -8.344833702000001    0.528244221000000    5.180328927000001
 C    -7.215306792000000    0.460884510000000    4.368758248000000
 C    -6.252120552000000    1.482140852000000    4.411623611000000
 C    -6.462989712000000    2.582205619000000    5.255972382000000
 C    -4.452566053000000    0.404692970000000    3.404830673000000
 N    -5.103043771000001    1.485238536000000    3.603734139000000
 H    -7.726473018000000    3.481110732000000    6.737670240000000
 H    -9.087674191000000    -0.260237207000000    5.129939148000000
 H    -7.092995521000001    -0.363051413000000    3.674951482000000
 H    -5.728918847000000    3.379254908000000    5.260896359000000
 H    -4.730729589000000    -0.535120374000000    3.901888902000000
 H    -9.410916672000001    1.656377351000000    6.673617292000000
 C    1.708808513000000    8.272608630000001    -6.365419712000000
 C    2.328763599000000    8.352955793000000    -5.117036088000000
 C    1.014602942000000    7.115129755000000    -6.715401368000000
 C    0.921083300000000    6.051745519000001    -5.821263021000000
 C    1.528404588000000    6.135148392000000    -4.557643418000000
 C    2.256018569000000    7.287718101000000    -4.226442417000000
 C    0.416979781000000    4.421501017000000    -3.443610238000000
 N    1.490187266000000    5.090532220000000    -3.619352988000000
 H    2.880537477000000    9.244956341000000    -4.842107596000000
 H    0.551763991000000    7.034619172000000    -7.692822585000000
 H    0.408822803000000    5.141397461000000    -6.111183487000000
 H    2.745530775000000    7.331220825000000    -3.260700649000000
 H    -0.514273812000000    4.678022060000000    -3.967685288000000
 H    1.780199067000000    9.097847229999999    -7.064430572000000
 C    8.529986442000000    -1.607012572000000    6.044128285000000
 C    7.583687989000000    -2.633013697000000    6.077333330000000
 C    8.344832416999999    -0.528245396000000    5.180331290000000
 C    7.215305907000000    -0.460885679000000    4.368760055000000
 C    6.252118784000001    -1.482141156000000    4.411626207000000
 C    6.462986657000000    -2.582205113000000    5.255976354000000
 C    4.452565622000000    -0.404692928000000    3.404831248000000
 N    5.103042342000000    -1.485238812000000    3.603736254000000
 H    7.726468576000000    -3.481109562000000    6.737675797000000
 H    9.087673595000000    0.260235344000000    5.129940901000000
 H    7.092995626000000    0.363049536000000    3.674952273000000
 H    5.728915116000000    -3.379253775000000    5.260900954000000
 H    4.730729743000000    0.535120762000000    3.901888495000000
 H    9.410913802000000    -1.656377681000000    6.673621425000000




