%nproc=15
%mem=70GB
%chk=Adamantane_Ketoenamine_Ketoenamine.chk
#P B3LYP/6-311++G(d,p) EmpiricalDispersion=GD3 opt SCF=YQC NoSymm

Comment

0 1
 C    -0.000001000000000    -0.000001000000000    1.760854000000000
 C    -0.000001000000000    -0.000001000000000    -1.760853000000000
 H    0.583501000000000    -0.548807000000000    -2.343561000000000
 H    -0.583501000000000    0.548807000000000    -2.343561000000000
 C    0.925717000000000    -0.871783000000000    0.897399000000000
 C    -0.925717000000000    0.871783000000000    0.897399000000000
 C    -0.871783000000000    -0.925717000000000    -0.897399000000000
 C    0.871783000000000    0.925717000000000    -0.897399000000000
 C    1.773370000000000    0.051568000000000    -0.002829000000000
 C    -1.773370000000000    -0.051569000000000    -0.002829000000000
 C    0.051568000000000    -1.773370000000000    0.002829000000000
 C    -0.051569000000000    1.773370000000000    0.002829000000000
 H    2.340312000000000    0.633966000000000    0.562907000000000
 H    -2.340313000000000    -0.633966000000000    0.562907000000000
 H    0.633966000000000    -2.340313000000000    -0.562907000000000
 H    -0.633966000000000    2.340312000000000    -0.562907000000000
 H    2.368699000000000    -0.498341000000000    -0.571393000000000
 H    -2.368700000000000    0.498341000000000    -0.571393000000000
 H    -0.498341000000000    -2.368700000000000    0.571393000000000
 H    0.498341000000000    2.368699000000000    0.571393000000000
 H    -0.548807000000000    -0.583501000000000    2.343561000000000
 H    0.548807000000000    0.583501000000000    2.343561000000000
 C    1.890713019000000    -1.653552045000000    1.736389857000000
 O    3.100563178000000    -1.519540017000000    1.564469897000000
 C    1.365688818000000    -2.576861686000000    2.782870189000000
 C    2.161782422000000    -3.344084151000000    3.541441934000000
 H    0.301977848000000    -2.631703033000000    2.956677774000000
 N    3.527678573000000    -3.431619761000000    3.524658197000000
 H    1.682695342000000    -3.981182215000000    4.277863380000000
 C    4.382247449000000    -4.221611987000000    4.311228729000000
 H    3.977054971000000    -2.807685911000000    2.848178068000000
 C    3.928707989999999    -5.154446891000000    5.253377006000000
 C    5.769674530000000    -4.070461207000000    4.162053370000000
 C    4.825338370000001    -5.910013376000000    6.017641499000000
 H    2.869033797000000    -5.320244788000001    5.412523428000000
 C    6.196534141000000    -5.743801117000000    5.853233142000000
 H    4.446689857000000    -6.627933975999999    6.740343107000000
 C    6.670133424000001    -4.822800845000000    4.924191862000000
 H    6.164512715000000    -3.355104310000000    3.444303994000000
 H    6.892458394000000    -6.330010862000000    6.446985312000000
 H    7.739761172000000    -4.686116465000000    4.790169540000000
 C    -1.890712917000000    1.653552543000000    1.736389509000000
 O    -3.100563076000000    1.519541553000000    1.564468739000000
 C    -1.365688631000000    2.576861408000000    2.782870484000000
 C    -2.161782094000000    3.344084262000000    3.541441984000000
 H    -0.301977727000000    2.631701836000000    2.956678760000000
 N    -3.527678163000000    3.431620983000000    3.524657413000000
 H    -1.682694964000000    3.981181690000000    4.277863947000000
 C    -4.382246898000000    4.221613636000000    4.311227669000000
 H    -3.977054639000000    2.807687724000000    2.848176789000000
 C    -3.928707280000000    5.154447855000000    5.253376548000000
 C    -5.769674007000000    4.070464028000000    4.162051383000000
 C    -4.825337532000000    5.910014808000000    6.017640728000000
 H    -2.869033053000000    5.320244842000000    5.412523696000000
 C    -6.196533333000000    5.743803714999999    5.853231447000000
 H    -4.446688895000000    6.627934859000000    6.740342816000000
 C    -6.670132774000000    4.822804138000000    4.924189557000000
 H    -6.164512316000000    3.355107693000000    3.444301516000000
 H    -6.892457487000000    6.330013823000000    6.446983374000000
 H    -7.739760547999999    4.686120670000000    4.790166513000000
 C    -1.739844633000000    -1.738225502000000    -1.809859820000000
 O    -2.603582754000000    -1.184953524000000    -2.487428770000000
 C    -1.531831693000000    -3.212358929000000    -1.893127148000000
 C    -2.296455469000001    -4.013044610000000    -2.649486422000000
 H    -0.727470230000000    -3.666943391000000    -1.335405640000000
 N    -3.349608210000000    -3.672600796000000    -3.454833418000000
 H    -2.062723715000000    -5.072798977000000    -2.644479538000000
 C    -4.160404815000000    -4.490406234000000    -4.259116958000000
 H    -3.548355805000000    -2.668218628000000    -3.478787882000000
 C    -4.046753865000000    -5.886109610000000    -4.310282596000000
 C    -5.135552146000000    -3.887554344000000    -5.068876819000000
 C    -4.875829568000000    -6.652841945000000    -5.137133230000000
 H    -3.315663492000000    -6.411324748000000    -3.705814360000000
 C    -5.835646670000000    -6.034233658000000    -5.931431274000000
 H    -4.767620846000000    -7.734044731000000    -5.156464711000001
 C    -5.966270413000000    -4.649510469000000    -5.897747289000000
 H    -5.255330686000000    -2.806626545000000    -5.062165415000000
 H    -6.478806394000000    -6.629521675000001    -6.573670961000000
 H    -6.712894018000000    -4.158246580000000    -6.515777310000000
 C    1.739844633000000    1.738225502000000    -1.809859820000000
 O    2.603582754000000    1.184953524000000    -2.487428770000000
 C    1.531831693000000    3.212358929000000    -1.893127148000000
 C    2.296455469000001    4.013044610000000    -2.649486422000000
 H    0.727470230000000    3.666943391000000    -1.335405640000000
 N    3.349608210000000    3.672600796000000    -3.454833418000000
 H    2.062723715000000    5.072798977000000    -2.644479538000000
 C    4.160404815000000    4.490406234000000    -4.259116958000000
 H    3.548355805000000    2.668218628000000    -3.478787882000000
 C    4.046753865000000    5.886109610000000    -4.310282596000000
 C    5.135552146000000    3.887554344000000    -5.068876819000000
 C    4.875829568000000    6.652841945000000    -5.137133230000000
 H    3.315663492000000    6.411324748000000    -3.705814360000000
 C    5.835646670000000    6.034233658000000    -5.931431274000000
 H    4.767620846000000    7.734044731000000    -5.156464711000001
 C    5.966270413000000    4.649510469000000    -5.897747289000000
 H    5.255330686000000    2.806626545000000    -5.062165415000000
 H    6.478806394000000    6.629521675000001    -6.573670961000000
 H    6.712894018000000    4.158246580000000    -6.515777310000000




