%nproc=15
%mem=70GB
%chk=Adamantane_Ketoenamine_Ketoenamine_freq_opt_freq.chk
#P B3LYP/6-311++G(d,p) EmpiricalDispersion=GD3 freq(noraman) SCF=YQC NoSymm

Restart from Adamantane_Ketoenamine_Ketoenamine_freq_opt.log

0 1
 C  -0.011182   0.020964   1.805758
 C  -0.024936  -0.008359  -1.761113
 H   0.651012  -0.578676  -2.403350
 H  -0.705840   0.551239  -2.407563
 C   0.944240  -0.816787   0.919878
 C  -0.973683   0.843821   0.913791
 C  -0.851336  -0.961754  -0.866520
 C   0.807907   0.959431  -0.888828
 C   1.750834   0.135169   0.019583
 C  -1.787059  -0.122654   0.035338
 C   0.110614  -1.769445   0.026326
 C  -0.147046   1.781693  -0.001820
 H   2.356115   0.802501   0.639834
 H  -2.387527  -0.779709   0.671125
 H   0.795252  -2.364023  -0.586861
 H  -0.836769   2.365882  -0.619316
 H   2.447340  -0.430769  -0.599566
 H  -2.488365   0.433132  -0.587493
 H  -0.460824  -2.462865   0.649326
 H   0.429297   2.485345   0.604914
 H  -0.598809  -0.625541   2.463833
 H   0.581666   0.678399   2.448103
 C   1.898288  -1.622561   1.816060
 O   3.119893  -1.414636   1.762317
 C   1.334969  -2.605722   2.720720
 C   2.101108  -3.364034   3.564457
 H   0.265395  -2.753747   2.754688
 N   3.447281  -3.292550   3.650860
 H   1.614435  -4.072917   4.224210
 C   4.298796  -4.037822   4.478034
 H   3.854531  -2.593276   3.025892
 C   3.859550  -5.106976   5.270795
 C   5.657956  -3.690003   4.497096
 C   4.765736  -5.798773   6.070177
 H   2.821406  -5.413321   5.265197
 C   6.114879  -5.449894   6.090935
 H   4.409838  -6.623411   6.677606
 C   6.553533  -4.391538   5.295084
 H   6.003765  -2.864297   3.884246
 H   6.813349  -5.995453   6.713906
 H   7.599604  -4.106822   5.295671
 C  -1.920761   1.664709   1.803661
 O  -3.143768   1.463987   1.754659
 C  -1.349601   2.655911   2.694453
 C  -2.108422   3.419706   3.539786
 H  -0.281206   2.815352   2.706550
 N  -3.453718   3.348603   3.639471
 H  -1.618536   4.146716   4.177288
 C  -4.291548   4.077460   4.495120
 H  -3.871405   2.673843   2.994855
 C  -3.811674   4.866515   5.549384
 C  -5.675731   3.993806   4.282344
 C  -4.704365   5.566032   6.357198
 H  -2.751157   4.929575   5.757077
 C  -6.078989   5.485885   6.141876
 H  -4.317337   6.171863   7.168881
 C  -6.557065   4.690379   5.100428
 H  -6.052307   3.383438   3.468382
 H  -6.766670   6.030211   6.777812
 H  -7.623187   4.613082   4.919491
 C  -1.728505  -1.818541  -1.795978
 O  -2.551950  -1.227934  -2.516473
 C  -1.588052  -3.256585  -1.833218
 C  -2.334117  -4.048228  -2.669035
 H  -0.879475  -3.753626  -1.189622
 N  -3.267957  -3.590096  -3.526948
 H  -2.187949  -5.122333  -2.647995
 C  -4.043296  -4.335177  -4.427392
 H  -3.394634  -2.575188  -3.478016
 C  -3.764379  -5.669261  -4.753505
 C  -5.136447  -3.698803  -5.033313
 C  -4.580258  -6.350589  -5.652727
 H  -2.907223  -6.175685  -4.328291
 C  -5.670098  -5.719297  -6.249670
 H  -4.351442  -7.382227  -5.895620
 C  -5.937923  -4.386497  -5.936823
 H  -5.354342  -2.665631  -4.784817
 H  -6.296897  -6.255156  -6.952278
 H  -6.778905  -3.878192  -6.394707
 C   1.680476   1.801371  -1.836110
 O   2.493836   1.198568  -2.557947
 C   1.546683   3.239631  -1.888046
 C   2.303567   4.020593  -2.724242
 H   0.822717   3.743972  -1.267673
 N   3.239951   3.549970  -3.572511
 H   2.147047   5.093320  -2.728261
 C   4.060197   4.285122  -4.440441
 H   3.320864   2.529343  -3.553646
 C   4.175137   5.680839  -4.387220
 C   4.804772   3.575516  -5.394105
 C   5.006631   6.344999  -5.284960
 H   3.635444   6.253842  -3.644089
 C   5.741982   5.639420  -6.235747
 H   5.084863   7.425111  -5.231335
 C   5.637656   4.249073  -6.279578
 H   4.719814   2.494965  -5.437790
 H   6.389661   6.163831  -6.927963
 H   6.204587   3.683272  -7.010149






