%nproc=15
%mem=70GB
%chk=TP_Cyanohydrine_Benzobisoxazole.chk
#P B3LYP/6-311++G(d,p) EmpiricalDispersion=GD3 opt SCF=YQC

Comment

0 1
 C    -0.603476000000000    1.312019000000000    -0.000004000000000
 C    -0.834504000000000    -1.178634000000000    -0.000004000000000
 C    1.437979000000000    -0.133384000000000    -0.000004000000000
 C    -1.439925000000000    0.110456000000000    -0.000004000000000
 C    0.815621000000000    1.191783000000000    -0.000004000000000
 C    0.624305000000000    -1.302240000000000    -0.000004000000000
 C    -0.387127000000000    3.698946000000000    -0.000004000000000
 C    -3.009817000000000    -2.184735000000000    -0.000004000000000
 C    3.396945000000000    -1.514211000000000    -0.000004000000000
 C    -3.603278000000000    -0.921119000000000    -0.000003000000000
 C    1.003926000000000    3.581089000000000    -0.000003000000000
 C    2.599351000000000    -2.659971000000000    -0.000003000000000
 H    -2.270854000000000    2.738354000000000    -0.000003000000000
 H    -1.236057000000000    -3.335794000000000    -0.000003000000000
 H    3.506911000000000    0.597440000000000    -0.000003000000000
 H    -3.356441000000000    1.178916000000000    -0.000003000000000
 H    2.699192000000000    2.317306000000000    -0.000003000000000
 H    0.657249000000000    -3.496222000000000    -0.000003000000000
 C    -1.200386000000000    2.600297000000000    -0.000003000000000
 C    -1.651731000000000    -2.339713000000000    -0.000003000000000
 C    2.852117000000000    -0.260584000000000    -0.000003000000000
 C    -2.855306000000000    0.222978000000000    -0.000003000000000
 C    1.620758000000000    2.361278000000000    -0.000003000000000
 C    1.234548000000000    -2.584256000000000    -0.000003000000000
 N    -0.686678447000000    5.057837614000000    0.064989441000000
 O    1.564748098000000    4.796551205000000    -0.022003196000000
 C    0.493025829000000    5.655146676000000    0.030920069000000
 C    1.909153855000000    7.722315644000000    -0.032420345000000
 C    2.025694153000000    9.115490583000000    -0.038546109000000
 H    2.814588690000000    7.121104570000000    -0.081511553000000
 C    0.884151891000000    9.912107759000000    0.021256462000000
 H    3.008493357000000    9.577160453999999    -0.091450314000000
 C    -0.374182984000000    9.318699237999999    0.088568927000000
 H    0.975061743000000    10.995316599000001    0.014871726000000
 C    -0.489926858000000    7.926279668999999    0.094243010000000
 H    -1.267128405000000    9.936787503000000    0.135334292000000
 H    -1.480297157000000    7.475985490000000    0.145564429000000
 C    0.648977799000000    7.108253892999999    0.032608119000000
 N    -4.036864189000000    -3.123603257000000    0.064989441000000
 O    -4.936300316000000    -1.043168993000000    -0.022003196000000
 C    -5.144002373000000    -2.400605790000000    0.030920069000000
 C    -7.642287553000000    -2.207791658000000    -0.032420345000000
 C    -8.907081582000000    -2.803454411000000    -0.038546109000000
 H    -7.574342743000000    -1.123056438000000    -0.081511553000000
 C    -9.026198814000001    -4.190367798000000    0.021256462000000
 H    -9.798300071000000    -2.183161778000000    -0.091450314000000
 C    -7.883123181000001    -4.983411571000000    0.088568927000000
 H    -10.009739330000000    -4.653243642000000    0.014871726000000
 C    -6.619381533000000    -4.387436783000000    0.094243010000000
 H    -7.971928777000000    -6.065769272000000    0.135334292000000
 H    -5.734229114000000    -5.019974033000000    0.145564429000000
 C    -6.480405121000000    -2.992103293000000    0.032608119000000
 N    4.723550333000000    -1.934236019000000    0.064989441000000
 O    3.371555943000000    -3.753385064000000    -0.022003196000000
 C    4.650982690000000    -3.254544405000000    0.030920069000000
 C    5.733138959000000    -5.514532002000000    -0.032420345000000
 C    6.881393502000000    -6.312046613000000    -0.038546109000000
 H    4.759757359000000    -5.998055793000000    -0.081511553000000
 C    8.142055490000001    -5.721750914999999    0.021256462000000
 H    6.789811469000000    -7.394010604000000    -0.091450314000000
 C    8.257316416000000    -4.335296715000000    0.088568927000000
 H    9.034686784000000    -6.342085797000000    0.014871726000000
 C    7.109317831000000    -3.538849511000000    0.094243010000000
 H    9.239069381000000    -3.871027671000000    0.135334292000000
 H    7.214537050000000    -2.456016609999999    0.145564429000000
 C    5.831434256000000    -4.116156673000000    0.032608119000000




