%nproc=15
%mem=70GB
%chk=F_BoronicAcid_BoronateEster.chk
#P B3LYP/6-311++G(d,p) EmpiricalDispersion=GD3 opt SCF=YQC

Comment

0 1
 F    1.342850000000000    -2.363239000000000    -0.181050000000000
 C    0.684160000000000    -1.200169000000000    -0.092040000000000
 C    -0.709070000000000    -1.188689000000000    -0.034700000000000
 F    -1.391880000000000    -2.340709000000000    -0.068500000000000
 C    -1.404610000000000    0.011571000000000    0.057810000000000
 C    -0.684160000000000    1.200171000000000    0.092040000000000
 F    -1.342850000000000    2.363241000000000    0.181050000000000
 C    0.709070000000000    1.188691000000000    0.034700000000000
 F    1.391880000000000    2.340711000000000    0.068500000000000
 C    1.404610000000000    -0.011579000000000    -0.057810000000000
 B    -2.941793427000000    0.024241094000000    0.121076741000000
 O    -3.720571086000001    1.175330125000000    0.214346249000000
 O    -3.744441132000000    -1.113803053000000    0.092895408000000
 C    -5.026736362000000    0.737388133000000    0.244107961000000
 C    -5.041251749000000    -0.654401808000000    0.170266109000000
 C    -6.189109006000000    1.478826625000000    0.331088122000000
 C    -6.218888521000000    -1.376545386000000    0.179595466000000
 C    -7.390821241000000    0.759021624000000    0.341522821000000
 C    -7.405381241000000    -0.637046069000000    0.267454012000000
 H    -6.164690974000000    2.559482496000000    0.387887332000000
 H    -6.217017692000000    -2.457417028000000    0.121714319000000
 H    -8.328384277000000    1.297944251000000    0.408518921000000
 H    -8.354022258000001    -1.160417702000000    0.278089717000000
 B    2.941793355000000    -0.024257849000000    -0.121076738000000
 O    3.720564481999999    -1.175351346000000    -0.214345672000000
 O    3.744447517999999    1.113781758000000    -0.092895975000000
 C    5.026732242999999    -0.737416780000000    -0.244107605000000
 C    5.041255528000000    0.654373116000000    -0.170266449000000
 C    6.189100680000000    -1.478861912000000    -0.331087399000000
 C    6.218896398000000    1.376510006000000    -0.179596169000000
 C    7.390816999000000    -0.759063735000000    -0.341522459000000
 C    7.405384921000000    0.637003912000000    -0.267454348000000
 H    6.164676515000001    -2.559517673000000    -0.387886068000000
 H    6.217031702000000    2.457381688000000    -0.121715563000000
 H    8.328376975999999    -1.297991716000000    -0.408518292000000
 H    8.354028908000000    1.160370157000000    -0.278090316000000




