%nproc=15
%mem=70GB
%chk=ExtendedTrisPhenyl_Aldehyde_Benzobisoxazole.chk
#P B3LYP/6-311++G(d,p) EmpiricalDispersion=GD3 opt SCF=YQC

Comment

0 1
 C    2.406280000000000    -1.304070000000000    -0.188810000000000
 C    1.203390000000000    -0.548970000000000    -0.106440000000000
 C    -0.027230000000000    -1.203660000000000    -0.047250000000000
 H    -0.068540000000000    -2.290310000000000    -0.082140000000000
 C    -1.205400000000000    -0.462500000000000    0.059980000000000
 C    -2.456090000000000    -1.145820000000000    0.109240000000000
 C    -1.153500000000000    0.928000000000000    0.109830000000000
 H    -2.069380000000000    1.508030000000000    0.195200000000000
 C    0.083700000000000    1.572160000000000    0.044410000000000
 C    0.148000000000000    2.991420000000000    0.079300000000000
 C    1.263040000000000    0.839400000000000    -0.064700000000000
 H    2.222880000000000    1.348280000000000    -0.114060000000000
 C    0.175490000000000    4.190400000000000    0.090480000000000
 C    0.127670000000000    5.611430000000000    0.085080000000000
 C    -3.456150000000000    -1.808590000000000    0.128860000000000
 C    -4.564140000000000    -2.707110000000000    0.127640000000000
 C    3.394430000000000    -1.983070000000000    -0.219750000000000
 C    4.502070000000000    -2.877030000000000    -0.213360000000000
 C    -1.117180000000000    6.242170000000000    0.077500000000000
 C    -1.189510000000000    7.632000000000000    0.064410000000000
 H    -2.030180000000000    5.651340000000000    0.079790000000000
 C    -0.016980000000000    8.387359999999999    0.058750000000000
 H    -2.159150000000000    8.121460000000001    0.057590000000000
 C    1.227970000000000    7.755110000000000    0.065810000000000
 C    1.302670000000000    6.362820000000000    0.078900000000000
 H    2.139400000000000    8.346740000000000    0.060060000000000
 H    2.273040000000000    5.872360000000000    0.082380000000000
 C    4.252440000000000    -4.250540000000001    -0.198640000000000
 C    5.314610000000000    -5.149730000000000    -0.169460000000000
 H    3.229840000000000    -4.620520000000000    -0.204530000000000
 C    6.625220000000000    -4.673790000000000    -0.155500000000000
 H    5.116950000000000    -6.217720000000000    -0.154560000000000
 C    6.874820000000000    -3.299950000000000    -0.171320000000000
 C    5.811540000000000    -2.397060000000000    -0.200240000000000
 H    7.897730000000000    -2.933230000000000    -0.157900000000000
 H    6.009820000000000    -1.328100000000000    -0.207300000000000
 C    -4.315700000000000    -4.082170000000000    0.120760000000000
 C    -5.377930000000000    -4.983700000000000    0.105750000000000
 H    -3.293760000000000    -4.454150000000001    0.124030000000000
 C    -6.689040000000000    -4.509870000000000    0.098020000000000
 H    -5.180530000000000    -6.052100000000000    0.098250000000000
 C    -6.938440000000000    -3.136120000000000    0.105990000000000
 C    -5.875190000000000    -2.231340000000000    0.120820000000000
 H    -7.961900000000000    -2.770510000000000    0.098710000000000
 H    -6.075870000000000    -1.163000000000000    0.123970000000000
 H    -1.190439461000000    15.208907695000001    -0.147565499000000
 C    -0.663519009000000    14.257475304000000    -0.098443620000000
 C    0.736567180000000    14.249906918000002    -0.043314841000000
 H    1.279563934000000    15.193116646000000    -0.050505853000000
 C    1.453699595000000    13.045090233000000    0.020359079000000
 H    2.536988866000000    13.034748574000000    0.062492276000000
 C    0.730098272000000    11.845852123000000    0.025470624000000
 N    1.146386464000000    10.540381375000001    0.076371236000000
 C    -0.652394951000000    11.897020808000001    -0.030973133000000
 O    -1.118621205000000    10.615849485000000    -0.017461694000000
 C    -1.400218088000000    13.066372136000000    -0.092724440000000
 H    -2.481714322000000    13.051797519000001    -0.135568742000000
 C    0.019592020000000    9.848290316000000    0.044982302000000
 H    12.879459607999999    -7.631346197000000    -0.456223137000000
 C    11.798740369000001    -7.516247750000000    -0.392348346000000
 C    10.988955559000001    -8.658098728000001    -0.331007481000000
 H    11.448855055999999    -9.644374347999999    -0.348172306000000
 C    9.591783133000000    -8.553182960000001    -0.248433828000000
 H    8.961549887000000    -9.434088744000000    -0.201435379000000
 C    9.026072777000000    -7.271989223000000    -0.230785888000000
 N    7.719183496000000    -6.862955799999999    -0.160981351000000
 C    9.861416444000000    -6.169580620000001    -0.293935488000000
 O    9.080905481000000    -5.052014365000000    -0.265691178000000
 C    11.247220171000000    -6.229009171000000    -0.374256559000000
 H    11.856022157000000    -5.335254248000000    -0.421632037000000
 C    7.799671850000000    -5.542948192999999    -0.188231285000000
 H    -11.703173524000000    -9.282321537000000    -0.089749742000000
 C    -11.205998575000001    -8.314870102000000    -0.043527377000000
 C    -11.978970949000001    -7.147417357000000    0.010376199000000
 H    -13.064809647000001    -7.221368045000000    0.005142159000000
 C    -11.377153769000000    -5.880871865000000    0.070335451000000
 H    -11.971500324000001    -4.975082321000000    0.111509143000000
 C    -9.978090607000000    -5.814446827000000    0.072987428000000
 N    -9.125212883000000    -4.741826835000000    0.120173733000000
 C    -9.251134343000000    -6.991556778000000    0.017865803000000
 O    -7.927257924000000    -6.665691946000000    0.028485423000000
 C    -9.806401699000000    -8.263852966000000    -0.040235580000000
 H    -9.192355242000000    -9.154285036999999    -0.082185965000000
 C    -7.923086484000000    -5.292731958000000    0.087976141000000




