%nproc=15
%mem=70GB
%chk=3_Phenyl_PrimaryAmine_Imide.chk
#P B3LYP/6-311++G(d,p) EmpiricalDispersion=GD3 opt SCF=YQC NoSymm

Comment

0 1
 C    1.212954000000000    0.700272000000000    0.000000000000000
 C    1.208877000000000    -0.698223000000000    0.000000000000000
 C    -0.000137000000000    -1.400767000000000    0.000000000000000
 C    -1.209188000000000    -0.698053000000000    0.000000000000000
 C    -1.213163000000000    0.700261000000000    0.000000000000000
 C    0.000000000000000    1.395989000000000    0.000000000000000
 H    -2.145136000000000    -1.238581000000000    0.000000000000000
 H    -0.000098000000000    2.476797000000000    0.000000000000000
 H    2.144938000000000    -1.238545000000000    0.000000000000000
 C    4.674020191000000    1.935568413000000    -0.189077173000000
 C    6.042343519000000    1.913169069000000    -0.388117613000000
 H    6.552918123000000    0.997864200000000    -0.670892521000000
 C    6.736985062999999    3.113822734000000    -0.212167373000000
 H    7.815327315000000    3.140411324000000    -0.359605487000000
 C    6.056484626000000    4.292178861000000    0.153941616000000
 H    6.616431678000000    5.216418718000000    0.286222593000000
 C    4.671794839000000    4.286376747000000    0.347953736000000
 H    4.134076020000000    5.186283290000000    0.629863529000000
 C    4.009584005000000    3.086064488000000    0.165877070000000
 C    2.592835837000000    2.761173577000000    0.289157540000000
 C    3.686595478000000    0.867238826000000    -0.296897012000000
 N    2.452525348000000    1.416629853000000    -0.001585681000000
 O    4.029622371000000    -0.258446990000000    -0.612841946000000
 O    1.790133223000000    3.619547428000000    0.610780963000000
 C    -4.013768259000000    3.079661468000000    -0.189077173000000
 C    -4.678669302000000    4.275787325000000    -0.388117613000000
 H    -4.141382985000000    5.175672229000000    -0.670892521000000
 C    -6.065786784000000    4.276877940000000    -0.212167373000000
 H    -6.628090337000000    5.197390667000000    -0.359605487000000
 C    -6.745887155000000    3.098290866000000    0.153941616000000
 H    -7.826278497000000    3.120974865000000    0.286222593000000
 C    -6.048379696000000    1.902095725000000    0.347953736000000
 H    -6.558756743000001    0.986405503000000    0.629863529000000
 C    -4.677776451000000    1.928918323000000    0.165877070000000
 C    -3.687915977000000    0.864537884000000    0.289157540000000
 C    -2.594818379000000    2.758854815000000    -0.296897012000000
 N    -2.453415159000000    1.415439497000000    -0.001585681000000
 O    -1.791558367000000    3.618860256000000    -0.612841946000000
 O    -4.029808721000000    -0.259849285000000    0.610780963000000
 C    -0.661164516000000    -5.015732979000000    -0.189077173000000
 C    -1.364819553000000    -6.189479140000000    -0.388117613000000
 H    -2.412782867000000    -6.173912490000000    -0.670892521000000
 C    -0.672441000000000    -7.391439221000000    -0.212167373000000
 H    -1.188662367000000    -8.338563535000000    -0.359605487000000
 C    0.688295567000000    -7.391396718000000    0.153941616000000
 H    1.208660607000000    -8.338487126000000    0.286222593000000
 C    1.375712942000000    -6.189374746000000    0.347953736000000
 H    2.423915548000000    -6.173734671000000    0.629863529000000
 C    0.667412414000000    -5.015669898000000    0.165877070000000
 C    1.094535132000000    -3.626319093000000    0.289157540000000
 C    -1.092540309000000    -3.626398391000000    -0.296897012000000
 N    0.000345585000000    -2.832446248000000    -0.001585681000000
 O    -2.238904761000000    -3.360532732999999    -0.612841946000000
 O    2.239281516000000    -3.360437785000000    0.610780963000000




