%nproc=15
%mem=70GB
%chk=3_Phenyl_PrimaryAmine_Imide_freq.chk
#P B3LYP/6-311++G(d,p) EmpiricalDispersion=GD3 freq(noraman) SCF=YQC NoSymm

Restart from 3_Phenyl_PrimaryAmine_Imide.log

0 1
 C   1.198594   0.693543  -0.013545
 C   1.213103  -0.699257  -0.013530
 C   0.000959  -1.385415  -0.013496
 C  -1.212500  -0.701587  -0.013506
 C  -1.200664   0.691242  -0.013551
 C  -0.001715   1.400193  -0.013582
 H  -2.145523  -1.241466  -0.013448
 H  -0.002759   2.478151  -0.013644
 H   2.147171  -1.237328  -0.013608
 C   4.597827   2.072675  -0.488268
 C   5.884104   2.204401  -0.984914
 H   6.267779   1.512037  -1.724235
 C   6.656848   3.261171  -0.492043
 H   7.668974   3.398665  -0.854668
 C   6.145149   4.145766   0.464059
 H   6.768910   4.954647   0.826595
 C   4.843883   4.002694   0.957058
 H   4.435041   4.680459   1.696419
 C   4.088418   2.953306   0.460483
 C   2.693576   2.547969   0.785881
 C   3.551112   1.065521  -0.813520
 N   2.430932   1.406615  -0.013652
 O   3.611275   0.142396  -1.587332
 O   1.923509   3.060127   1.560002
 C  -4.094596   2.945621  -0.488035
 C  -4.851899   3.993626  -0.984729
 H  -4.444220   4.672068  -1.724110
 C  -6.153453   4.134406  -0.491826
 H  -6.778636   4.942144  -0.854461
 C  -6.663629   3.248970   0.464311
 H  -7.676022   3.384683   0.826862
 C  -5.889026   2.193626   0.957318
 H  -6.271508   1.500638   1.696672
 C  -4.602488   2.064154   0.460753
 C  -3.553995   1.058896   0.786145
 C  -2.699011   2.542756  -0.813313
 N  -2.434335   1.402004  -0.013596
 O  -1.929757   3.056300  -1.587321
 O  -3.612521   0.135819   1.560142
 C  -0.503951  -5.018852  -0.488274
 C  -1.032578  -6.198724  -0.985249
 H  -1.823734  -6.184911  -1.724878
 C  -0.503737  -7.396268  -0.492267
 H  -0.890423  -8.341582  -0.855110
 C   0.517866  -7.395322   0.464184
 H   0.906548  -8.339919   0.826765
 C   1.044183  -6.196801   0.957493
 H   1.835309  -6.181524   1.697126
 C   0.513053  -5.017910   0.460859
 C   0.859042  -3.607234   0.786528
 C  -0.852943  -3.608819  -0.813523
 N   0.002298  -2.809192  -0.013486
 O  -1.682017  -3.199421  -1.587856
 O   1.687454  -3.196309   1.560763






