%nproc=15
%mem=70GB
%chk=P_Aldehyde_Imine.chk
#P B3LYP/6-311++G(d,p) EmpiricalDispersion=GD3 opt SCF=YQC

Comment

0 1
 C    3.834450000000000    2.028850000000000    0.170710000000000
 C    4.206330000000000    0.766460000000000    -0.028510000000000
 C    3.061750000000000    -0.118750000000000    -0.027720000000000
 C    2.370940000000000    1.922770000000000    0.075610000000000
 N    1.928970000000000    0.690610000000000    -0.011520000000000
 C    1.610010000000000    3.228620000000000    0.050410000000000
 C    0.261520000000000    3.197680000000000    0.091160000000000
 N    -0.610890000000000    2.132640000000000    0.135180000000000
 C    -1.936010000000000    2.503710000000000    0.103780000000000
 C    -0.610970000000000    4.367110000000000    0.089560000000000
 C    -1.888450000000000    3.964100000000000    0.143740000000000
 C    -3.061790000000000    1.761380000000000    0.025080000000000
 C    -2.951580000000000    0.254180000000000    -0.012510000000000
 N    -1.879610000000000    -0.503420000000000    -0.000070000000000
 C    -3.782560000000000    -1.754340000000000    0.057960000000000
 C    -4.212200000000000    -0.502070000000000    -0.047320000000000
 C    -0.176010000000000    -3.028340000000000    -0.060020000000000
 N    0.671370000000000    -1.928970000000000    -0.029400000000000
 C    1.995920000000000    -2.349370000000000    -0.010440000000000
 C    1.965000000000000    -3.733700000000000    0.015910000000000
 C    0.639340000000000    -4.146480000000000    -0.126480000000000
 C    3.147630000000000    -1.476470000000000    -0.015980000000000
 C    -1.620780000000000    -2.974640000000000    -0.017310000000000
 C    -2.336100000000000    -1.819480000000000    0.013870000000000
 H    4.463900000000001    2.885230000000000    0.286010000000000
 H    5.237850000000000    0.476960000000000    -0.118110000000000
 C    2.358930000000000    4.521340000000000    -0.050440000000000
 H    -0.306820000000000    1.166360000000000    0.052270000000000
 H    -0.301730000000000    5.398590000000000    0.063860000000000
 H    -2.734880000000000    4.629900000000000    0.185090000000000
 C    -4.397420000000000    2.434930000000000    -0.006460000000000
 H    -4.450990000000000    -2.596530000000000    0.127720000000000
 H    -5.226140000000000    -0.160350000000000    -0.095230000000000
 H    0.368460000000000    -0.960990000000000    -0.016620000000000
 H    2.820260000000000    -4.392510000000000    0.077770000000000
 H    0.310690000000000    -5.174130000000000    -0.203890000000000
 C    4.531580000000000    -2.102480000000000    -0.035610000000000
 C    -2.374400000000000    -4.291369999999999    0.032450000000000
 C    -4.741190000000000    3.311750000000000    -1.050370000000000
 C    -5.977000000000000    3.965120000000000    -1.062590000000000
 H    -4.031900000000000    3.519110000000000    -1.850140000000000
 C    -6.911260000000000    3.708380000000000    -0.062580000000000
 H    -6.208570000000000    4.674480000000000    -1.853500000000000
 C    -6.599060000000000    2.823450000000000    0.966560000000000
 C    -5.340520000000000    2.215570000000000    1.011330000000000
 H    -7.333480000000000    2.610180000000000    1.739570000000000
 H    -5.112220000000000    1.548090000000000    1.840350000000000
 C    3.256720000000000    4.734290000000000    -1.112880000000000
 C    4.070410000000000    5.869650000000000    -1.151690000000000
 H    3.370520000000000    3.985610000000000    -1.895730000000000
 C    3.946060000000000    6.847820000000000    -0.169600000000000
 H    4.807020000000000    5.983140000000000    -1.943480000000000
 C    3.020070000000000    6.683940000000000    0.858240000000000
 C    2.251750000000000    5.517520000000001    0.933110000000000
 H    2.906760000000000    7.458130000000000    1.613260000000000
 H    1.565100000000000    5.396900000000000    1.768870000000000
 C    4.872220000000000    -3.027410000000000    -1.039010000000000
 C    6.122890000000000    -3.651820000000000    -1.053390000000000
 H    4.145120000000000    -3.295470000000000    -1.803690000000000
 C    7.080580000000000    -3.314800000000000    -0.101320000000000
 H    6.344820000000000    -4.401200000000000    -1.808820000000000
 C    6.772130000000000    -2.389760000000000    0.892460000000000
 C    5.494670000000000    -1.823420000000000    0.950700000000000
 H    7.522030000000000    -2.113930000000000    1.629310000000000
 H    5.266900000000000    -1.133430000000000    1.760630000000000
 C    -3.297960000000000    -4.666250000000000    -0.957890000000000
 C    -3.944920000000000    -5.905850000000000    -0.903880000000000
 H    -3.528960000000000    -3.989670000000000    -1.777670000000000
 C    -3.627980000000000    -6.818279999999999    0.100320000000000
 H    -4.684150000000000    -6.165690000000000    -1.657210000000000
 C    -2.689640000000000    -6.480600000000001    1.070970000000000
 C    -2.091670000000000    -5.217730000000000    1.053630000000000
 H    -2.411560000000000    -7.200630000000000    1.836380000000000
 H    -1.358000000000000    -4.974810000000000    1.820860000000000
 C    -12.523814926000000    6.755623045000000    -0.909629870000000
 C    -11.400167035000001    7.523225002000000    -1.221822601000000
 C    -12.370601342000000    5.402905371000001    -0.608222551000000
 C    -11.105159897000000    4.821894453000000    -0.598242473000000
 C    -9.970266924000001    5.594372179000000    -0.894596635000000
 C    -10.135470828000001    6.945639237000000    -1.232706307000000
 C    -8.295495906999999    4.227093847000000    -0.035169874000000
 N    -8.669667735000001    5.064573422000000    -0.923362407000000
 H    -11.512310013000000    8.573016439000000    -1.468939896000000
 H    -13.240764014000000    4.793785371000000    -0.389490217000000
 H    -10.995152287000000    3.762530510000000    -0.396141898000000
 H    -9.257120219999999    7.526495382000000    -1.488202290000000
 H    -8.948247970000001    3.945913419000000    0.803008668000000
 H    -13.510508210999999    7.204074933000000    -0.917298494000000
 C    7.337669110000000    12.097546254000001    -1.088589524000000
 C    8.063718442000001    10.928496931000000    -1.324041628000000
 C    5.967811389000000    12.018312118000001    -0.840844374000000
 C    5.327771190000000    10.782071801000001    -0.808076087000000
 C    6.057493542000000    9.602209895000001    -1.027075766000000
 C    7.428003710000000    9.692009327999999    -1.311981158000000
 C    4.577917987000000    8.027217748000000    -0.164997888000000
 N    5.468522258000000    8.326992350999999    -1.029417804000000
 H    9.127044245999999    10.982711172000000    -1.529234506000000
 H    5.391861895000000    12.923381127000001    -0.682142282000000
 H    4.256874120000000    10.728623309000000    -0.648323139000000
 H    7.976895301000000    8.778583728999999    -1.508306262000000
 H    4.293098864000000    8.725128485999999    0.634683064000000
 H    7.832151844000000    13.061683755000001    -1.114226334000000
 C    12.615991822000000    -6.504521794000000    -0.964714058000000
 C    11.501885823000000    -7.309812532000000    -1.208714668000000
 C    12.440373322999999    -5.142937421000000    -0.720968247000000
 C    11.162739032999999    -4.589536612000000    -0.700633474000000
 C    10.037952197999999    -5.399207174000000    -0.928268811000000
 C    10.224488270000000    -6.760780997000000    -1.209078637000000
 C    8.357128230000001    -4.030123168000000    -0.083661134000000
 N    8.725266972000000    -4.899502168000000    -0.943263712000000
 H    11.631049603999999    -8.367241623000000    -1.410866841000000
 H    13.302163036000000    -4.505714969999999    -0.555680248000000
 H    11.034224654000001    -3.524582811000000    -0.543930776000000
 H    9.352835386000001    -7.371652975000000    -1.412126722000000
 H    9.026571844999999    -3.696464852000000    0.721452729000000
 H    13.612090543000001    -6.931446188000000    -0.980665276000000
 C    -6.956356244000000    -12.441598302999999    -0.603381893000000
 C    -7.722007370000000    -11.308068308999999    -0.882934668000000
 C    -5.589917072999999    -12.306070551000001    -0.361220573000000
 C    -4.992476246000000    -11.048370675999999    -0.377677202000000
 C    -5.762161798000000    -9.903526981000001    -0.641204722000000
 C    -7.128905322000000    -10.051075855000001    -0.920085719000000
 C    -4.336953655000000    -8.246570420999999    0.156416155000000
 N    -5.217104291000000    -8.610012853000001    -0.694176008000000
 H    -8.782933248000001    -11.406491183000000    -1.084067171000000
 H    -4.983324676000000    -13.184086983000000    -0.168381540000000
 H    -3.923973574000000    -10.952224457000000    -0.221933099000000
 H    -7.708754552000000    -9.165256437000000    -1.150890132000000
 H    -4.028170669000000    -8.902669620999999    0.982175118000000
 H    -7.417618708000000    -13.422315402000001    -0.590636280000000




