%nproc=15
%mem=70GB
%chk=P_Aldehyde_Imine_freq.chk
#P B3LYP/6-311++G(d,p) EmpiricalDispersion=GD3 freq(noraman) SCF=YQC

Restart from P_Aldehyde_Imine.log

0 1
 C  -4.136296  -1.233287   0.304212
 C  -4.315509   0.107651   0.306323
 C  -2.981707   0.701124   0.321754
 C  -2.693477  -1.455439   0.303646
 N  -2.020732  -0.267975   0.316341
 C  -2.113036  -2.737364   0.306943
 C  -0.738942  -3.007958   0.316079
 N   0.278559  -2.083848   0.315728
 C   1.501784  -2.710803   0.316745
 C  -0.117598  -4.299586   0.312650
 C   1.238731  -4.119758   0.322831
 C   2.757649  -2.090579   0.323570
 C   2.981732  -0.701142   0.321781
 N   2.020758   0.267956   0.316327
 C   4.136322   1.233271   0.304303
 C   4.315535  -0.107667   0.306454
 C   0.738969   3.007943   0.316031
 N  -0.278530   2.083830   0.315700
 C  -1.501755   2.710787   0.316713
 C  -1.238705   4.119739   0.322750
 C   0.117624   4.299569   0.312567
 C  -2.757618   2.090561   0.323542
 C   2.113063   2.737347   0.306928
 C   2.693505   1.455421   0.303672
 H  -4.893519  -2.001034   0.302137
 H  -5.247617   0.649605   0.294762
 C  -3.025135  -3.923090   0.297853
 H   0.145894  -1.079465   0.315006
 H  -0.652937  -5.234527   0.302675
 H   1.998998  -4.883152   0.331764
 C   3.947389  -2.996903   0.335130
 H   4.893545   2.001018   0.302277
 H   5.247647  -0.649616   0.294960
 H  -0.145868   1.079447   0.314953
 H  -1.998975   4.883130   0.331659
 H   0.652961   5.234510   0.302578
 C  -3.947359   2.996891   0.335104
 C   3.025162   3.923071   0.297844
 C   4.290993  -3.742584  -0.803270
 C   5.393178  -4.584471  -0.798131
 H   3.685574  -3.647180  -1.697506
 C   6.184872  -4.708870   0.354275
 H   5.662070  -5.153957  -1.679352
 C   5.842492  -3.965712   1.491281
 C   4.738097  -3.119473   1.482024
 H   6.443648  -4.054151   2.390818
 H   4.480646  -2.549545   2.367180
 C  -3.743908  -4.262383  -0.858955
 C  -4.589542  -5.361421  -0.875522
 H  -3.628012  -3.653032  -1.747984
 C  -4.744062  -6.154866   0.272176
 H  -5.140221  -5.625781  -1.769954
 C  -4.027432  -5.817018   1.427258
 C  -3.176760  -4.715758   1.439650
 H  -4.140652  -6.418405   2.323870
 H  -2.629839  -4.460125   2.339852
 C  -4.291011   3.742516  -0.803316
 C  -5.393197   4.584403  -0.798166
 H  -3.685631   3.647076  -1.697574
 C  -6.184840   4.708855   0.354269
 H  -5.662130   5.153845  -1.679403
 C  -5.842410   3.965749   1.491294
 C  -4.738017   3.119509   1.482027
 H  -6.443534   4.054226   2.390849
 H  -4.480524   2.549619   2.367195
 C   3.744043   4.262287  -0.858920
 C   4.589669   5.361331  -0.875487
 H   3.628242   3.652869  -1.747914
 C   4.744076   6.154862   0.272167
 H   5.140429   5.625629  -1.769888
 C   4.027344   5.817085   1.427209
 C   3.176677   4.715824   1.439599
 H   4.140481   6.418535   2.323789
 H   2.629677   4.460247   2.339769
 C   11.152770  -8.735520  -0.456046
 C   9.969976  -9.197863  -1.036157
 C   11.199320  -7.448240   0.077389
 C   10.070441  -6.633099   0.051253
 C   8.873749  -7.100447  -0.515704
 C   8.844336  -8.382939  -1.082658
 C   7.355542  -5.592444   0.395066
 N   7.708322  -6.319147  -0.593008
 H   9.929027  -10.193376  -1.464006
 H   12.121102  -7.071994   0.507369
 H   10.121236  -5.621393   0.437474
 H   7.925226  -8.724343  -1.544095
 H   7.909547  -5.603583   1.344413
 H   12.033665  -9.366665  -0.435186
 C  -8.767109  -11.107485  -0.644304
 C  -9.207439  -9.923715  -1.239357
 C  -7.495882  -11.158677  -0.074073
 C  -6.675395  -10.033376  -0.078681
 C  -7.121024  -8.835690  -0.660805
 C  -8.386603  -8.801697  -1.264322
 C  -5.632954  -7.322152   0.289868
 N  -6.332802  -7.673766  -0.717753
 H  -10.190112  -9.879170  -1.695583
 H  -7.136211  -12.081312   0.368099
 H  -5.675459  -10.087846   0.336615
 H  -8.710626  -7.881881  -1.736739
 H  -5.672970  -7.874551   1.239397
 H  -9.402464  -11.985585  -0.640078
 C  -11.152743   8.735510  -0.456000
 C  -9.969983   9.197791  -1.036231
 C  -11.199274   7.448271   0.077535
 C  -10.070409   6.633110   0.051380
 C  -8.873751   7.100398  -0.515699
 C  -8.844358   8.382846  -1.082750
 C  -7.355506   5.592435   0.395074
 N  -7.708342   6.319075  -0.593026
 H  -9.929049   10.193272  -1.464159
 H  -12.121031   7.072073   0.507611
 H  -10.121192   5.621434   0.437683
 H  -7.925276   8.724201  -1.544278
 H  -7.909449   5.603648   1.344457
 H  -12.033626   9.366670  -0.435125
 C   8.766967   11.107600  -0.644280
 C   9.207315   9.923862  -1.239384
 C   7.495753   11.158737  -0.074014
 C   6.675298   10.033413  -0.078639
 C   7.120945   8.835759  -0.660816
 C   8.386510   8.801821  -1.264366
 C   5.632950   7.322155   0.289859
 N   6.332746   7.673821  -0.717781
 H   10.189977   9.879360  -1.695637
 H   7.136069   12.081346   0.368200
 H   5.675372   10.087837   0.336686
 H   8.710548   7.882031  -1.736822
 H   5.672989   7.874540   1.239396
 H   9.402298   11.985717  -0.640040






