%nproc=15
%mem=70GB
%chk=2_Phenyl_C_CarboxylicAnhydride_Imide_freq_opt_freq.chk
#P B3LYP/6-311++G(d,p) EmpiricalDispersion=GD3 freq(noraman) SCF=YQC NoSymm

Restart from 2_Phenyl_C_CarboxylicAnhydride_Imide_freq_opt.log

0 1
 C  -1.164986  -0.692992  -0.100062
 C  -1.166399   0.690176   0.104148
 C  -0.000499   1.457768   0.213545
 C   1.166948   0.693181   0.100847
 C   1.168362  -0.690416  -0.103433
 C   0.002440  -1.457801  -0.212768
 C  -0.003288   2.942792   0.447853
 C   0.002315  -2.942844  -0.446980
 H  -0.885468  -3.404188  -0.019309
 H  -0.017383  -3.145240  -1.523436
 H   0.906141  -3.400250  -0.050393
 H   0.896987   3.402662   0.046022
 H  -0.894808   3.401778   0.025434
 H  -0.016947   3.145044   1.524428
 C  -2.585160  -1.156040  -0.170456
 C  -2.587553   1.149682   0.178516
 N  -3.380985  -0.004196   0.005135
 O  -3.010488   2.267394   0.351279
 O  -3.005698  -2.274842  -0.342148
 C  -4.809084  -0.005958   0.006819
 C  -5.503198   0.955925  -0.728307
 H  -4.958207   1.703971  -1.287628
 C  -6.895199   0.953258  -0.717917
 H  -7.433819   1.704393  -1.283871
 C  -7.592469  -0.009532   0.010113
 H  -8.676335  -0.010916   0.011391
 C  -6.891017  -0.970532   0.736481
 H  -7.426394  -1.723038   1.303677
 C  -5.499000  -0.969619   0.743588
 H  -4.950765  -1.716264   1.301624
 C   2.587347   1.156053   0.171155
 C   2.589745  -1.149734  -0.177772
 N   3.382948   0.004186  -0.004498
 O   3.013397  -2.267172  -0.350663
 O   3.008601   2.274596   0.342886
 C   4.811080   0.005971  -0.006294
 C   5.505239  -0.955044   0.729892
 H   4.960272  -1.702435   1.290120
 C   6.897239  -0.952367   0.719397
 H   7.435929  -1.702825   1.286181
 C   7.594419   0.009589  -0.009825
 H   8.678285   0.010987  -0.011194
 C   6.892905   0.969731  -0.737270
 H   7.428229   1.721576  -1.305390
 C   5.500886   0.968782  -0.744245
 H   4.952563   1.714751  -1.303105






