%nproc=15
%mem=70GB
%chk=ExtendedTrisPhenyl_BoronicAcid_BoronateEster_freq.chk
#P B3LYP/6-311++G(d,p) EmpiricalDispersion=GD3 freq(noraman) SCF=YQC

Restart from ExtendedTrisPhenyl_BoronicAcid_BoronateEster.log

0 1
 C  -0.322198  -2.810081   0.000242
 C  -0.160055  -1.396984   0.000210
 C   1.124451  -0.832339   0.000139
 H   1.993786  -1.476746   0.000070
 C   1.291125   0.560873   0.000196
 C   2.595985   1.126966   0.000139
 C   0.159848   1.391006   0.000294
 H   0.283239   2.466086   0.000341
 C  -1.130064   0.838713   0.000339
 C  -2.272813   1.685629   0.000399
 C  -1.283313  -0.556050   0.000292
 H  -2.276031  -0.986773   0.000328
 C  -3.244961   2.406045   0.000392
 C  -4.386488   3.251717   0.000313
 C   3.706089   1.608347   0.000148
 C   5.009485   2.173485   0.000026
 C  -0.460124  -4.012179   0.000252
 C  -0.622218  -5.423547   0.000114
 C  -4.239187   4.652037   0.000311
 C  -5.357581   5.472600   0.000221
 H  -3.243489   5.078924   0.000379
 C  -6.655083   4.932133   0.000134
 H  -5.230513   6.549550   0.000208
 C  -6.793977   3.533459   0.000148
 C  -5.683121   2.702756   0.000235
 H  -7.787156   3.098081   0.000084
 H  -5.801341   1.625878   0.000244
 C   0.501195  -6.272418  -0.000173
 C   0.336641  -7.649716  -0.000243
 H   1.493082  -5.836757  -0.000344
 C  -0.944327  -8.228259  -0.000028
 H   1.210027  -8.292491  -0.000467
 C  -2.060823  -7.374374   0.000258
 C  -1.908816  -5.995623   0.000330
 H  -3.057210  -7.802380   0.000425
 H  -2.776086  -5.346401   0.000545
 C   6.148116   1.345166  -0.000066
 C   7.418208   1.902746  -0.000097
 H   6.019407   0.269486  -0.000100
 C   7.599674   3.296536   0.000003
 H   8.286971   1.253739  -0.000183
 C   6.458257   4.116796   0.000111
 C   5.183122   3.570800   0.000122
 H   6.578370   5.194550   0.000186
 H   4.309970   4.212084   0.000237
 B  -7.889894   5.846634   0.000021
 O  -9.208696   5.396711  -0.000132
 O  -7.844161   7.239316  -0.000029
 C  -9.988159   6.533252  -0.000239
 C  -9.158619   7.653423  -0.000173
 C  -11.365214   6.641375  -0.000399
 C  -9.663670   8.939074  -0.000263
 C  -11.891061   7.939971  -0.000490
 C  -11.059177   9.063323  -0.000424
 H  -11.998476   5.763507  -0.000453
 H  -9.008658   9.800833  -0.000214
 H  -12.966214   8.074006  -0.000617
 H  -11.500951   10.052641  -0.000500
 B  -1.119657  -9.754791  -0.000124
 O  -0.071090  -10.672460  -0.000322
 O  -2.348946  -10.410871   0.000144
 C  -0.666253  -11.915477  -0.000275
 C  -2.051040  -11.756449   0.000009
 C  -0.072009  -13.162426  -0.000443
 C  -2.912474  -12.836237   0.000138
 C  -0.934271  -14.266695  -0.000323
 C  -2.322972  -14.107208  -0.000040
 H   1.004823  -13.272478  -0.000656
 H  -3.986216  -12.699313   0.000364
 H  -0.513292  -15.265041  -0.000447
 H  -2.959313  -14.984130   0.000051
 B   9.009423   3.907788  -0.000006
 O   9.280045   5.274669   0.000077
 O   10.192119   3.171031  -0.000220
 C   10.654141   5.380539  -0.000017
 C   11.208608   4.101658  -0.000196
 C   11.437081   6.518542   0.000035
 C   12.574411   3.895320  -0.000336
 C   12.824482   6.323702  -0.000098
 C   13.380519   5.041224  -0.000280
 H   10.994122   7.506195   0.000174
 H   12.992565   2.896914  -0.000483
 H   13.478728   7.187347  -0.000062
 H   14.458108   4.928444  -0.000384






