%nproc=15
%mem=70GB
%chk=Pyrene_BoronicAcid_Boroxine_freq.chk
#P B3LYP/6-311++G(d,p) EmpiricalDispersion=GD3 freq(noraman) SCF=YQC

Restart from Pyrene_BoronicAcid_Boroxine.log

0 1
 C   3.535312   0.000001   0.000090
 C   2.824661   1.209026   0.000089
 C   1.425710   1.235535   0.000090
 C   0.711740   0.000000   0.000089
 C   1.425711  -1.235535   0.000090
 C   2.824661  -1.209026   0.000089
 H   3.372612   2.145391   0.000093
 H   3.372614  -2.145389   0.000093
 C  -0.711740  -0.000000   0.000089
 C  -1.425710   1.235535   0.000090
 C  -2.824661   1.209025   0.000089
 C  -3.535312  -0.000000   0.000090
 C  -2.824661  -1.209026   0.000089
 C  -1.425710  -1.235536   0.000090
 H  -3.372613   2.145389   0.000093
 H  -3.372613  -2.145390   0.000093
 C   0.679189  -2.464297   0.000092
 C  -0.679189  -2.464297   0.000092
 H   1.228924  -3.399529   0.000093
 H  -1.228924  -3.399529   0.000093
 C   0.679189   2.464297   0.000092
 C  -0.679190   2.464296   0.000092
 H   1.228924   3.399529   0.000093
 H  -1.228925   3.399528   0.000093
 B   5.081057   0.000000   0.000102
 O   5.792294  -1.191059  -0.000008
 B   7.165735  -1.196807  -0.000154
 O   5.792294   1.191059  -0.000011
 B   7.165735   1.196807  -0.000158
 O   7.849968  -0.000000  -0.000354
 H   7.759801  -2.222781  -0.000327
 H   7.759803   2.222781  -0.000338
 B  -5.081057  -0.000000   0.000102
 O  -5.792294   1.191059  -0.000008
 B  -7.165734   1.196807  -0.000154
 O  -5.792294  -1.191059  -0.000010
 B  -7.165735  -1.196806  -0.000158
 O  -7.849968   0.000000  -0.000354
 H  -7.759801   2.222782  -0.000327
 H  -7.759802  -2.222781  -0.000338






