%nproc=15
%mem=70GB
%chk=TrisPhenyl_PrimaryAmine_Ketoenamine.chk
#P B3LYP/6-311++G(d,p) EmpiricalDispersion=GD3 opt SCF=YQC NoSymm

Comment

0 1
 C    5.413628598000000    -1.872546979000000    -0.010594081000000
 C    5.035722949999999    -0.755661278000000    0.753536436000000
 C    3.723673695000000    -0.300430655000000    0.759525264000000
 C    2.735803795999999    -0.944625681000000    0.000449131000000
 C    3.108315992000000    -2.059076085000000    -0.765208093000000
 C    4.420719166000000    -2.513357956000000    -0.770224134000000
 C    1.334053259000000    -0.458848890000000    0.000402830000000
 C    0.268355259000000    -1.366873890000000    0.008860830000000
 C    -1.059173741000000    -0.922488890000000    0.008337830000000
 C    -1.309241741000000    0.453656110000000    0.006809830000000
 C    -0.264218741000000    1.383363110000000    0.003920830000000
 C    1.053270259000000    0.911980110000000    -0.001354170000000
 C    -0.547166741000000    2.832910110000000    0.023508830000000
 C    0.132648259000000    3.710843110000000    -0.833951170000000
 C    -0.134981741000000    5.073690110000000    -0.817152170000000
 C    -1.095013741000000    5.616633110000000    0.054395830000000
 C    -1.773249741000000    4.731796110000000    0.910653830000000
 C    -1.504821741000000    3.368908110000000    0.897304830000000
 C    -2.182774741000000    -1.891955890000000    -0.017346170000000
 C    -3.315488741000000    -1.662366890000000    -0.812060170000000
 C    -4.366923741000000    -2.569668890000000    -0.831200170000000
 C    -4.330026741000000    -3.741083890000000    -0.056511170000000
 C    -3.194045741000000    -3.964973890000000    0.739344830000000
 C    -2.141176741000000    -3.059528890000000    0.758579830000000
 H    0.474380259000000    -2.429560890000000    -0.040814170000000
 H    1.873134259000000    1.618471110000000    0.074149830000000
 H    -2.335361741000000    0.804210110000000    -0.020704170000000
 H    0.839454259000000    3.316212110000000    -1.556644170000000
 H    -2.004881741000000    2.721095110000000    1.609926830000000
 H    0.396903259000000    5.726432110000000    -1.500808170000000
 H    -2.509284741000000    5.119474110000000    1.606548830000000
 H    4.680359519000000    -3.384593294000000    -1.361290287000000
 H    2.355934167000000    -2.588063678000000    -1.339179593000000
 H    5.783140304000000    -0.232983007000000    1.339887964000000
 H    3.464345167000000    0.579450163000000    1.337108744000000
 H    -1.287700741000000    -3.244167890000000    1.400987830000000
 H    -3.142543741000000    -4.854378890000000    1.357384830000000
 H    -5.225637741000000    -2.375433890000000    -1.464217170000000
 H    -3.358715741000000    -0.779456890000000    -1.439657170000000
 H    11.732413108999999    -1.848353735000000    1.512760809000000
 C    12.026941759000000    -2.760930599000000    0.996636639000000
 C    13.359878063000000    -3.176073751000001    1.066223224000000
 H    14.081851454000001    -2.589963295000000    1.629661347000000
 C    13.761608804000000    -4.339344579000000    0.415737712000000
 H    14.798212672000000    -4.663346013000000    0.468318921000000
 C    12.830996388000001    -5.090154905000000    -0.297823588000000
 H    13.143977343000000    -6.002229831000000    -0.801256913000000
 C    11.494773366000000    -4.679277858000000    -0.365024606000000
 H    10.811803733000000    -5.312794463000000    -0.918880181000000
 C    11.077627813999998    -3.503614293000000    0.275627335000000
 C    9.669890476999999    -2.989859232000000    0.250785049000000
 O    9.356180390000000    -2.027887693000000    0.948961133000000
 C    8.668699049000001    -3.648345789000000    -0.636504854000000
 C    7.380887224000000    -3.277625193000000    -0.680475007000000
 H    8.982168712000000    -4.451498434000000    -1.285642957000000
 N    6.756719875000000    -2.282541105000000    0.022261963000000
 H    6.731417963000000    -3.817971973000000    -1.361613726000000
 H    7.379344282000000    -1.756588368000000    0.642399471000000
 H    -4.093948204000000    11.087719174000002    1.876988074000000
 C    -3.517196919000000    11.794439914000000    1.282150646000000
 C    -3.818136741000000    13.156514207000001    1.372118212000000
 H    -4.616571598000000    13.493405553000001    2.028806541000000
 C    -3.095212425000000    14.080205595000001    0.622523213000000
 H    -3.328438174000000    15.140029845000001    0.690843072000000
 C    -2.068586443000000    13.643753336000000    -0.210827770000000
 H    -1.500007967000000    14.366326012000000    -0.792110926000000
 C    -1.762066092000000    12.281001596999999    -0.299036965000000
 H    -0.941287334000000    12.001732102000000    -0.949327351000000
 C    -2.489075276000000    11.337651098000000    0.441353217000000
 C    -2.230281013000000    9.861910177000000    0.402622404000000
 O    -2.818773807000000    9.115843376999999    1.182567060000000
 C    -1.267825278000000    9.316174685000000    -0.596939461000000
 C    -0.948301302000000    8.015698769000000    -0.663971185000000
 H    -0.809903273000000    9.982930941000001    -1.311391145000000
 N    -1.409701078000000    6.984502915000000    0.108920675000000
 H    -0.238999397000000    7.717274952000000    -1.429195958000000
 H    -2.100309520000000    7.266245563000000    0.810731919000000
 H    -7.514622746000000    -9.196448412000001    1.475017261000000
 C    -8.439252001000000    -9.001637402000000    0.933688131000000
 C    -9.468470702999999    -9.945602286000000    0.993223668000000
 H    -9.337131749999999    -10.855420747000000    1.573924976000000
 C    -10.660468647000000    -9.719907193999999    0.310639872000000
 H    -11.461834928000000    -10.453460435000000    0.355372624000000
 C    -10.826020321000000    -8.549315971000000    -0.425046320000000
 H    -11.759772564000000    -8.370526135000000    -0.953651848000000
 C    -9.798899223999999    -7.600332494000000    -0.482322016000000
 H    -9.991025641000000    -6.700344477000000    -1.054734294000000
 C    -8.588218551000001    -7.819055027000000    0.190762599000000
 C    -7.437268671000000    -6.859131419000000    0.178644304000000
 O    -6.464636313000000    -7.059328973000000    0.903323777000000
 C    -7.483443892000000    -5.676420394000000    -0.728182401000000
 C    -6.515884063000000    -4.748831848000000    -0.763309280000000
 H    -8.319777267999999    -5.554886021000000    -1.399355670000000
 N    -5.359011544000000    -4.696976750000000    -0.033532948000000
 H    -6.641210143000000    -3.926479696000000    -1.460277881000000
 H    -5.231216876000000    -5.489820929000000    0.602017674000000




