%nproc=15
%mem=70GB
%chk=TrisPhenyl_PrimaryAmine_Ketoenamine_freq.chk
#P B3LYP/6-311++G(d,p) EmpiricalDispersion=GD3 freq(noraman) SCF=YQC NoSymm

Restart from TrisPhenyl_PrimaryAmine_Ketoenamine.log

0 1
 C   5.378846  -1.937830  -0.040414
 C   5.017721  -0.831860   0.742396
 C   3.713124  -0.360684   0.741206
 C   2.716344  -0.972380  -0.033364
 C   3.091063  -2.074036  -0.814788
 C   4.396177  -2.551070  -0.828565
 C   1.321205  -0.470557  -0.029666
 C   0.241825  -1.361793  -0.037613
 C  -1.080924  -0.903729  -0.033978
 C  -1.313208   0.476610  -0.021171
 C  -0.255072   1.393007  -0.013045
 C   1.056489   0.903970  -0.017524
 C  -0.518053   2.852084   0.000624
 C   0.252192   3.737267  -0.765992
 C   0.013195   5.106193  -0.763284
 C  -1.013653   5.640613   0.026001
 C  -1.793625   4.764946   0.795083
 C  -1.549143   3.399723   0.778116
 C  -2.212866  -1.861272  -0.043685
 C  -3.358490  -1.625268  -0.815975
 C  -4.423473  -2.517706  -0.836747
 C  -4.378326  -3.686641  -0.065709
 C  -3.236202  -3.935875   0.708862
 C  -2.176841  -3.040516   0.715051
 H   0.434151  -2.428130  -0.046353
 H   1.883703   1.603830  -0.010854
 H  -2.332890   0.843209  -0.017087
 H   1.036742   3.346005  -1.403598
 H  -2.152153   2.750147   1.402045
 H   0.617796   5.743402  -1.395879
 H  -2.585227   5.165816   1.419212
 H   4.641866  -3.384148  -1.474693
 H   2.354799  -2.550401  -1.452065
 H   5.766012  -0.353692   1.365488
 H   3.457674   0.480058   1.375837
 H  -1.317689  -3.247426   1.342672
 H  -3.192024  -4.831722   1.319073
 H  -5.271822  -2.304463  -1.474420
 H  -3.407168  -0.740423  -1.440324
 H   11.648426  -1.492333   0.728955
 C   11.962998  -2.511825   0.543932
 C   13.304895  -2.869930   0.603939
 H   14.054433  -2.119665   0.829641
 C   13.687133  -4.193121   0.377679
 H   14.733109  -4.474375   0.428632
 C   12.718638  -5.153834   0.090893
 H   13.008384  -6.185518  -0.073872
 C   11.375392  -4.792550   0.018870
 H   10.637366  -5.557001  -0.189369
 C   10.981411  -3.466184   0.242033
 C   9.550959  -3.014018   0.197164
 O   9.249976  -1.919471   0.709956
 C   8.558512  -3.843845  -0.451953
 C   7.235429  -3.494127  -0.521578
 H   8.847392  -4.770766  -0.923490
 N   6.711868  -2.365075   0.000887
 H   6.540697  -4.159542  -1.020735
 H   7.406385  -1.781839   0.475169
 H  -4.514706   10.833652   0.959381
 C  -3.797943   11.618852   0.753840
 C  -4.158676   12.958715   0.838393
 H  -5.174471   13.228678   1.104708
 C  -3.214904   13.955167   0.584435
 H  -3.494119   15.000595   0.654315
 C  -1.909736   13.601893   0.245418
 H  -1.169319   14.371549   0.058647
 C  -1.551435   12.259365   0.149276
 H  -0.528475   12.006491  -0.099733
 C  -2.492198   11.251133   0.399827
 C  -2.168074   9.787250   0.330787
 O  -2.947572   8.973160   0.861090
 C  -0.973788   9.350626  -0.360650
 C  -0.614547   8.031450  -0.452396
 H  -0.332906   10.069438  -0.848019
 N  -1.311773   7.007586   0.083745
 H   0.292713   7.769312  -0.983972
 H  -2.151740   7.311786   0.583165
 H  -7.114336  -9.347324   0.682648
 C  -8.153494  -9.114390   0.486578
 C  -9.131090  -10.101464   0.536681
 H  -8.854304  -11.124455   0.765860
 C  -10.466972  -9.776554   0.295901
 H  -11.230862  -10.544916   0.338966
 C  -10.817072  -8.459034   0.004731
 H  -11.854662  -8.198509  -0.171352
 C  -9.835943  -7.472343  -0.057187
 H  -10.130979  -6.452316  -0.269152
 C  -8.491401  -7.788662   0.180418
 C  -7.388169  -6.771622   0.146122
 O  -6.293212  -7.054351   0.668327
 C  -7.609671  -5.497722  -0.504328
 C  -6.648247  -4.523262  -0.565675
 H  -8.553312  -5.288006  -0.984467
 N  -5.412628  -4.630123  -0.033046
 H  -6.876316  -3.590186  -1.067514
 H  -5.255123  -5.523665   0.440492






