%nproc=15
%mem=70GB
%chk=TriPhenanthrene_long_Cyanohydrine_Benzobisoxazole_freq.chk
#P B3LYP/6-311++G(d,p) EmpiricalDispersion=GD3 freq(noraman) SCF=YQC

Restart from TriPhenanthrene_long_Cyanohydrine_Benzobisoxazole.log

0 1
 H   2.207253  -7.808500  -0.000022
 C   1.846287  -6.787199  -0.000024
 C   0.454931  -6.568391  -0.000027
 H   3.794144  -5.897354  -0.000024
 C   2.724356  -5.728419  -0.000025
 C   2.232743  -4.399332  -0.000025
 H   0.511863  -3.155396  -0.000014
 C   0.854372  -4.180664  -0.000023
 C  -0.069639  -5.240407  -0.000026
 C  -1.835252  -7.398853   0.000004
 C  -0.485018  -7.644370  -0.000005
 C  -2.429555  -6.116066  -0.000003
 C  -3.823751  -5.903831  -0.000012
 H  -4.483557  -6.763057   0.000002
 H  -5.406746  -4.463374  -0.000038
 C  -4.336462  -4.628314  -0.000035
 C  -3.463168  -3.511548  -0.000053
 H  -1.445150  -2.850040  -0.000072
 C  -2.082755  -3.722847  -0.000049
 C  -1.522026  -5.010809  -0.000024
 C  -4.925961   0.266159  -0.000084
 C  -6.322794   0.504883  -0.000083
 H  -7.003939  -0.337154  -0.000096
 H  -7.865722   1.992687  -0.000069
 C  -6.800760   1.794672  -0.000069
 C  -5.915634   2.890248  -0.000054
 C  -4.503281   2.680646  -0.000050
 C  -4.047432   1.350568  -0.000066
 H  -2.988259   1.134591  -0.000061
 C  -3.578337   3.823741  -0.000028
 C  -2.182561   3.665493  -0.000034
 H  -1.745459   2.676933  -0.000059
 C  -1.309437   4.755374  -0.000017
 C  -1.840053   6.070008  -0.000000
 H  -1.162141   6.914490   0.000007
 H  -3.615337   7.264621   0.000021
 C  -3.201049   6.263633   0.000008
 C  -4.081874   5.162281  -0.000001
 C  -5.489962   5.288874  -0.000003
 C  -6.377599   4.242207  -0.000022
 H   6.568788  -2.450652   0.000044
 C   6.176455  -1.441305   0.000030
 C   4.772658  -1.243430   0.000004
 H   3.190746   0.173474  -0.000043
 C   4.265414   0.057693  -0.000015
 C   5.100437   1.187304  -0.000003
 H   8.098717  -0.501308   0.000055
 C   7.024702  -0.359524   0.000037
 C   6.511386   0.953995   0.000025
 H   2.476643   2.021116  -0.000008
 C   3.193325   2.830340  -0.000025
 C   4.573089   2.559930  -0.000024
 C   2.693567   4.133418  -0.000042
 C   3.598842   5.223656  -0.000058
 H   3.210308   6.234607  -0.000074
 H   5.658807   5.815792  -0.000068
 C   4.954787   4.992560  -0.000056
 C   5.460918   3.678184  -0.000040
 C   7.325174   2.110049   0.000016
 C   6.862701   3.402144  -0.000014
 C   1.291474   4.360601  -0.000034
 C   0.094785   4.546401  -0.000028
 C   3.889537  -2.355007  -0.000011
 C   3.130442  -3.298597  -0.000018
 C  -4.421552  -1.061638  -0.000095
 C  -3.984188  -2.190929  -0.000086
 N  -0.272811  -9.012933   0.000023
 O  -2.481348  -8.603410  -0.000012
 C  -1.464490  -9.535700   0.000024
 C  -3.178573  -11.340882  -0.000290
 C  -3.505139  -12.693247  -0.000273
 H  -3.958579  -10.590188  -0.000561
 C  -2.499030  -13.658992   0.000072
 H  -4.546607  -12.993722  -0.000533
 C  -1.158945  -13.266661   0.000402
 H  -2.756840  -14.711927   0.000084
 C  -0.823576  -11.918468   0.000389
 H  -0.374545  -14.014793   0.000677
 H   0.211994  -11.602257   0.000645
 C  -1.833597  -10.944060   0.000041
 N  -7.668967   4.742565   0.000004
 O  -6.210207   6.450623  -0.000003
 C  -7.525985   6.035985   0.000028
 C  -8.232552   8.422929  -0.000287
 C  -9.240574   9.381800  -0.000257
 H  -7.192464   8.723201  -0.000574
 C  -10.579939   8.993201   0.000109
 H  -8.980190   10.434008  -0.000524
 C  -10.910060   7.636449   0.000446
 H  -11.362985   9.742853   0.000131
 C  -9.910050   6.672040   0.000422
 H  -11.950124   7.331076   0.000737
 H  -10.153852   5.617074   0.000685
 C  -8.561232   7.059695   0.000053
 N   7.941823   4.270192   0.000006
 O   8.691396   2.152755   0.000009
 C   8.990375   3.499528   0.000025
 C   11.410747   2.917626  -0.000263
 C   12.745213   3.310979  -0.000254
 H   11.150620   1.866775  -0.000505
 C   13.078554   4.665157   0.000050
 H   13.526149   2.559261  -0.000488
 C   12.068753   5.629557   0.000346
 H   14.119334   4.968332   0.000057
 C   10.733498   5.245913   0.000341
 H   12.324461   6.682931   0.000587
 H   9.941880   5.984650   0.000569
 C   10.394612   3.884022   0.000034






