%nproc=15
%mem=70GB
%chk=TriPhenanthrene_long_Cyanohydrine_Benzobisoxazole.chk
#P B3LYP/6-311++G(d,p) EmpiricalDispersion=GD3 opt SCF=YQC

Comment

0 1
 H    -3.354391864000000    7.227269985000000    0.000000000000000
 C    -2.813854864000000    6.280738985000000    0.000000000000000
 C    -1.404023864000000    6.280738985000000    0.000000000000000
 H    -4.612624864000000    5.053114985000000    0.000000000000000
 C    -3.522624864000000    5.053115985000000    0.000000000000000
 C    -2.813856864000000    3.825494985000000    0.000000000000000
 H    -0.855170864000000    2.881527985000000    0.000000000000000
 C    -1.400171864000000    3.825494985000000    0.000000000000000
 C    -0.695255864000000    5.053115985000000    0.000000000000000
 C    0.695316136000000    7.495017985000000    0.000000000000000
 C    -0.695256864000000    7.495017985000000    0.000000000000000
 C    1.404084136000000    6.280738985000000    0.000000000000000
 C    2.813916136000000    6.280738985000000    0.000000000000000
 H    3.354454136000000    7.227268985000000    0.000000000000000
 H    4.612685136000000    5.053114985000000    0.000000000000000
 C    3.522685136000000    5.053115985000000    0.000000000000000
 C    2.813916136000000    3.825494985000000    0.000000000000000
 H    0.855229136000000    2.881528985000000    0.000000000000000
 C    1.400231136000000    3.825494985000000    0.000000000000000
 C    0.695316136000000    5.053115985000000    0.000000000000000
 C    4.719904136000000    0.524226985000000    0.000000000000000
 C    6.137440136000000    0.524226985000000    0.000000000000000
 H    6.682439136000000    1.468194985000000    0.000000000000000
 H    7.936197136000000    -0.708541015000000    0.000000000000000
 C    6.846209136000000    -0.703396015000000    0.000000000000000
 C    6.141292136000000    -1.924347015000000    0.000000000000000
 C    4.723756136000000    -1.924347015000000    0.000000000000000
 C    4.013062136000000    -0.700060015000000    0.000000000000000
 H    2.923062136000000    -0.700060015000000    0.000000000000000
 C    4.028470136000000    -3.128616015000000    0.000000000000000
 C    2.612861136000000    -3.125282015000000    0.000000000000000
 H    2.067862136000000    -2.181314015000000    0.000000000000000
 C    1.906018136000000    -4.349569015000000    0.000000000000000
 C    2.614785136000000    -5.577190015000000    0.000000000000000
 H    2.069783136000000    -6.521157015000000    0.000000000000000
 H    4.581773136000000    -6.518574015000000    0.000000000000000
 C    4.032323136000000    -5.577190015000000    0.000000000000000
 C    4.737238135999999    -4.356239015000000    0.000000000000000
 C    6.143219136000000    -4.349569015000000    0.000000000000000
 C    6.838505136000000    -3.145296015000000    0.000000000000000
 H    -6.682379864000000    1.468193985000000    0.000000000000000
 C    -6.137379864000000    0.524226985000000    0.000000000000000
 C    -4.719843864000000    0.524226985000000    0.000000000000000
 H    -2.923001864000000    -0.700060015000000    0.000000000000000
 C    -4.013001864000000    -0.700060015000000    0.000000000000000
 C    -4.723694864000000    -1.924347015000000    0.000000000000000
 H    -7.936134864000000    -0.708541015000000    0.000000000000000
 C    -6.846146864000000    -0.703396015000000    0.000000000000000
 C    -6.141231864000000    -1.924347015000000    0.000000000000000
 H    -2.067797864000000    -2.181315015000000    0.000000000000000
 C    -2.612798864000000    -3.125282015000000    0.000000000000000
 C    -4.028409864000000    -3.128616015000000    0.000000000000000
 C    -1.905956864000000    -4.349569015000000    0.000000000000000
 C    -2.614725864000000    -5.577190015000000    0.000000000000000
 H    -2.069725864000000    -6.521158015000000    0.000000000000000
 H    -4.581710864000000    -6.518576015000001    0.000000000000000
 C    -4.032261864000000    -5.577190015000000    0.000000000000000
 C    -4.737177864000000    -4.356239015000000    0.000000000000000
 C    -6.838443864000000    -3.145296015000000    0.000000000000000
 C    -6.143156864000000    -4.349569015000000    0.000000000000000
 C    -0.605969864000000    -4.349549015000000    0.000000000000000
 C    0.604030136000000    -4.349549015000000    0.000000000000000
 C    -4.069839864000000    1.650063985000000    0.000000000000000
 C    -3.464839864000000    2.697954985000000    0.000000000000000
 C    4.069900136000000    1.650063985000000    0.000000000000000
 C    3.464900136000000    2.697954985000000    0.000000000000000
 N    -1.111186679000000    8.823771613000000    0.064989441000000
 O    1.154260546000000    8.753479735999999    -0.022003196000000
 C    0.013882640000000    9.518537274000000    0.030920069000000
 C    1.250448538000000    11.697874538000001    -0.032420345000000
 C    1.248963224000000    13.095914539000001    -0.038546109000000
 H    2.203404610000000    11.175244916000002    -0.081511553000000
 C    0.044246664000000    13.793320927000000    0.021256462000000
 H    2.189280788000000    13.638902774000000    -0.091450314000000
 C    -1.159501851000000    13.095804015000001    0.088568927000000
 H    0.043389239000000    14.880337603999999    0.014871726000000
 C    -1.157286723000000    11.698583920000001    0.094243010000000
 H    -2.101437836000000    13.636304919000002    0.135334292000000
 H    -2.106108675000000    11.166291630000000    0.145564429000000
 C    0.046608927000000    10.979622688999999    0.032608119000000
 N    8.197201154000000    -3.449447521000000    0.064989441000000
 O    7.003625857000000    -5.376250595000000    -0.022003196000000
 C    8.236366891999999    -4.771168498000000    0.030920069000000
 C    9.505471018000000    -6.931719550000000    -0.032420345000000
 C    10.716960112000001    -7.629438853000000    -0.038546109000000
 H    8.576389146000000    -7.495699932000000    -0.081511553000000
 C    11.923281797000000    -6.934812586000000    0.021256462000000
 H    10.717055822000001    -8.715271868000000    -0.091450314000000
 C    11.921072177999998    -5.543577363000000    0.088568927000000
 H    12.865101008000000    -7.477567196000000    0.014871726000000
 C    10.709928250000001    -4.846900045000000    0.094243010000000
 H    12.860121210999999    -4.998076179000000    0.135334292000000
 H    10.723347670000001    -3.759049828000000    0.145564429000000
 C    9.485349841000000    -5.530038179000000    0.032608119000000
 N    -7.085926341000000    -5.374150983000001    0.064989441000000
 O    -8.157775725000000    -3.377070370000000    -0.022003196000000
 C    -8.250145814000000    -4.747195390000000    0.030920069000000
 C    -10.755790193999999    -4.765966946000000    -0.032420345000000
 C    -11.965785580000000    -5.466273461000000    -0.038546109000000
 H    -10.779657875000000    -3.679367972000000    -0.081511553000000
 C    -11.967398724000001    -6.858291801000000    0.021256462000000
 H    -12.906186054999999    -4.923428833000000    -0.091450314000000
 C    -10.761456988999999    -7.552009944000000    0.088568927000000
 H    -12.908353980999999    -7.402542843000000    0.014871726000000
 C    -9.552536569000001    -6.851481344000000    0.094243010000000
 H    -10.758576335000001    -8.638000887000000    0.135334292000000
 H    -8.617146859000000    -7.407038962000000    0.145564429000000
 C    -9.531845929999999    -5.449396508000000    0.032608119000000




