%nproc=15
%mem=70GB
%chk=Pyrene_Hydrazide_Hydrazone.chk
#P B3LYP/6-311++G(d,p) EmpiricalDispersion=GD3 opt SCF=YQC NoSymm

Comment

0 1
 C    0.000149000000000    3.538221000000000    0.000000000000000
 C    -1.208314000000000    2.825814000000000    0.000000000000000
 C    -1.234523000000000    1.426499000000000    0.000000000000000
 C    0.000173000000000    0.711855000000000    0.000000000000000
 C    1.234878000000000    1.426489000000000    0.000000000000000
 C    1.208633000000000    2.825798000000000    0.000000000000000
 H    -2.147734000000000    3.368891000000000    0.000000000000000
 H    2.148055000000000    3.368886000000000    0.000000000000000
 C    0.000167000000000    -0.711882000000000    0.000000000000000
 C    -1.234536000000000    -1.426518000000000    0.000000000000000
 C    -1.208310000000000    -2.825825000000000    0.000000000000000
 C    0.000175000000000    -3.538236000000000    0.000000000000000
 C    1.208656000000000    -2.825835000000000    0.000000000000000
 C    1.234871000000000    -1.426526000000000    0.000000000000000
 H    -2.147732000000000    -3.368910000000000    0.000000000000000
 H    2.148078000000000    -3.368915000000000    0.000000000000000
 C    2.463326000000000    0.679235000000000    0.000000000000000
 C    2.463326000000000    -0.679271000000000    0.000000000000000
 H    3.399127000000000    1.228117000000000    0.000000000000000
 H    3.399123000000000    -1.228155000000000    0.000000000000000
 C    -2.462978000000000    0.679245000000000    0.000000000000000
 C    -2.462987000000000    -0.679261000000000    0.000000000000000
 H    -3.398774000000000    1.228133000000000    0.000000000000000
 H    -3.398787000000000    -1.228142000000000    0.000000000000000
 C    -0.078274470000000    5.034128603000000    -0.028831998000000
 O    -1.093778525000000    5.568111867000000    -0.469382583000000
 N    1.022908055000000    5.727244418000000    0.456879786000000
 H    1.809201024000000    5.256304229000000    0.879215421000000
 N    1.031970721000000    7.089477164000000    0.403152547000000
 C    2.118958305000000    7.665753857000000    0.803477101000000
 C    2.262638324000000    9.134471198000000    0.786487865000000
 H    2.987363049000000    7.085164155000000    1.163019591000000
 C    3.483924730000000    9.702058922000001    1.160908318000000
 C    3.635207800000000    11.089954547000000    1.139427095000000
 H    4.321359188000000    9.080136414000000    1.463892794000000
 C    2.570737132000000    11.903998088000000    0.748361386000000
 H    4.582966496000000    11.539517026000000    1.425264297000000
 C    1.352362361000000    11.334910292000000    0.376824223000000
 H    2.690036337000000    12.984660903000000    0.731217439000000
 C    1.196263375000000    9.948983693000001    0.393993661000000
 H    0.523082172000000    11.968110383999997    0.071398493000000
 H    0.244696566000000    9.509348069000000    0.100192516000000
 C    0.078274470000000    -5.034128603000000    0.028831998000000
 O    1.093778525000000    -5.568111867000000    0.469382583000000
 N    -1.022908055000000    -5.727244418000000    -0.456879786000000
 H    -1.809201024000000    -5.256304229000000    -0.879215421000000
 N    -1.031970721000000    -7.089477164000000    -0.403152547000000
 C    -2.118958305000000    -7.665753857000000    -0.803477101000000
 C    -2.262638324000000    -9.134471198000000    -0.786487865000000
 H    -2.987363049000000    -7.085164155000000    -1.163019591000000
 C    -3.483924730000000    -9.702058922000001    -1.160908318000000
 C    -3.635207800000000    -11.089954547000000    -1.139427095000000
 H    -4.321359188000000    -9.080136414000000    -1.463892794000000
 C    -2.570737132000000    -11.903998088000000    -0.748361386000000
 H    -4.582966496000000    -11.539517026000000    -1.425264297000000
 C    -1.352362361000000    -11.334910292000000    -0.376824223000000
 H    -2.690036337000000    -12.984660903000000    -0.731217439000000
 C    -1.196263375000000    -9.948983693000001    -0.393993661000000
 H    -0.523082172000000    -11.968110383999997    -0.071398493000000
 H    -0.244696566000000    -9.509348069000000    -0.100192516000000




