%nproc=15
%mem=70GB
%chk=F_BoronicAcid_Borosilicate.chk
#P B3LYP/6-311++G(d,p) EmpiricalDispersion=GD3 opt SCF=YQC

Comment

0 1
 F    1.342850000000000    -2.363239000000000    -0.181050000000000
 C    0.684160000000000    -1.200169000000000    -0.092040000000000
 C    -0.709070000000000    -1.188689000000000    -0.034700000000000
 F    -1.391880000000000    -2.340709000000000    -0.068500000000000
 C    -1.404610000000000    0.011571000000000    0.057810000000000
 C    -0.684160000000000    1.200171000000000    0.092040000000000
 F    -1.342850000000000    2.363241000000000    0.181050000000000
 C    0.709070000000000    1.188691000000000    0.034700000000000
 F    1.391880000000000    2.340711000000000    0.068500000000000
 C    1.404610000000000    -0.011579000000000    -0.057810000000000
 B    -2.977823050000000    0.011047064000000    0.156885867000000
 O    -3.666084106000000    -1.138257501000000    0.103002045000000
 O    -3.656233577000000    1.163130736000000    0.263750219000000
Si    -5.150674324000000    -1.713791762000000    -0.038259225000000
Si    -5.137422148000000    1.762600569000000    0.230060217000000
 O    -5.974133202000000    -1.219816732000000    1.239420180000000
 O    -5.813219571000001    -1.020833924000000    -1.317916809000000
 H    -5.152131424000000    -3.178705315000000    -0.156957243000000
 O    -5.815611157000000    1.280625355000000    -1.134868912000000
 O    -5.954624558000000    1.082270828000000    1.423896172000000
 H    -5.128157775000000    3.228090735000000    0.341681752000000
 B    -6.334468647000000    -0.111362375000000    1.900865810000000
 H    -6.731258791000000    -0.197104493000000    3.009275340000000
 B    -6.107185899000000    0.178465966000000    -1.839394617000000
 H    -6.321101947000000    0.270641455000000    -2.996563779000000
 B    2.980664256000000    -0.014795864000000    -0.087105669000000
 O    3.667274602000000    1.136681539000000    -0.073924189000000
 O    3.660497311000000    -1.168760469000000    -0.158871463000000
Si    5.138011403000000    1.730407727000000    -0.272984540000000
Si    5.131463308000000    -1.754816156000000    -0.376164917000000
 O    6.060185054000000    1.106765217000000    0.873848618000000
 O    5.691623935000000    1.180521008000000    -1.668627068000000
 H    5.136200601000000    3.199624527000000    -0.234751378000000
 O    5.698855807000000    -1.127313080000000    -1.732475210000000
 O    6.045702028000000    -1.201940459000000    0.813124219000000
 H    5.124916437000000    -3.223886595000000    -0.420839391000000
 B    6.468140385000000    -0.064246871000000    1.382106578000000
 H    6.953848112000000    -0.095297131000000    2.457508688000000
 B    5.937139169000000    0.044849628000000    -2.336944597000000
 H    6.056141122000000    0.077339243000000    -3.510861045000000




