%nproc=15
%mem=70GB
%chk=3_Phenyl_AmineBorane_Borazine_freq.chk
#P B3LYP/6-311++G(d,p) EmpiricalDispersion=GD3 freq(noraman) SCF=YQC

Restart from 3_Phenyl_AmineBorane_Borazine.log

0 1
 C  -0.532503  -1.290524   0.000255
 C  -1.381329  -0.183508   0.000205
 C  -0.851110   1.106777   0.000242
 C   0.531996   1.288411   0.000245
 C   1.384321   0.184080   0.000278
 C   0.850031  -1.104535   0.000358
 H   0.944817   2.288635   0.000157
 H   1.509821  -1.962174   0.000323
 H  -2.453970  -0.326029   0.000187
 N  -1.079378  -2.615049   0.000021
 B  -0.645536  -3.570000   0.989283
 B  -2.060595  -2.985079  -0.989460
 H   0.153482  -3.265672   1.815815
 N  -1.209160  -4.882415   0.957953
 H  -2.411864  -2.205247  -1.815695
 N  -2.587992  -4.312450  -0.958291
 B  -2.186566  -5.294245  -0.000216
 H  -0.908130  -5.543308   1.658221
 H  -3.267845  -4.567875  -1.658528
 H  -2.641735  -6.395283  -0.000203
 N   2.804843   0.372745   0.000084
 B   3.414794   1.226049   0.989329
 B   3.615967  -0.291928  -0.989387
 H   2.751605   1.765842   1.815768
 N   4.833168   1.394357   0.957961
 H   3.116249  -0.985749  -1.815883
 N   5.029166  -0.084685  -0.958302
 B   5.678604   0.753908  -0.000204
 H   5.254931   1.985645   1.658153
 H   5.590347  -0.545495  -1.658662
 H   6.859683   0.910492  -0.000280
 N  -1.724858   2.242575   0.000259
 B  -2.768840   2.343762   0.989514
 B  -1.555228   3.277396  -0.989243
 H  -2.904531   1.499359   1.815815
 N  -3.624430   3.487463   0.957979
 H  -0.704366   3.191951  -1.815648
 N  -2.441907   4.397176  -0.958305
 B  -3.493037   4.539809  -0.000307
 H  -4.347464   3.556747   1.658118
 H  -2.323734   5.113596  -1.658699
 H  -4.219711   5.483954  -0.000529






