%nproc=15
%mem=70GB
%chk=P_Hydrazide_Hydrazone_freq.chk
#P B3LYP/6-311++G(d,p) EmpiricalDispersion=GD3 freq(noraman) SCF=YQC

Restart from P_Hydrazide_Hydrazone-1.log

0 1
 C  -4.103940   1.338727  -0.614851
 C  -4.316442   0.002737  -0.615832
 C  -2.997305  -0.623013  -0.614115
 C  -2.656096   1.525576  -0.597899
 N  -2.012793   0.322060  -0.601179
 C  -2.043566   2.792451  -0.595397
 C  -0.662942   3.027696  -0.600405
 N   0.329088   2.076367  -0.601837
 C   1.568678   2.669968  -0.600985
 C  -0.007133   4.302390  -0.593005
 C   1.343676   4.085510  -0.602749
 C   2.807310   2.017102  -0.610199
 C   2.997273   0.622965  -0.614092
 N   2.012765  -0.322103  -0.601184
 C   4.103913  -1.338768  -0.614855
 C   4.316413  -0.002777  -0.615855
 C   0.662914  -3.027747  -0.600393
 N  -0.329109  -2.076410  -0.601837
 C  -1.568702  -2.670011  -0.601000
 C  -1.343706  -4.085548  -0.602765
 C   0.007105  -4.302433  -0.592979
 C  -2.807338  -2.017141  -0.610223
 C   2.043548  -2.792497  -0.595351
 C   2.656069  -1.525627  -0.597868
 H  -4.842020   2.124632  -0.629181
 H  -5.262043  -0.515590  -0.619605
 C  -2.924579   4.001466  -0.584687
 H   0.167990   1.076150  -0.603716
 H  -0.516048   5.252027  -0.584017
 H   2.124424   4.827870  -0.612342
 C   4.020974   2.892437  -0.618385
 H   4.842004  -2.124664  -0.629198
 H   5.262007   0.515560  -0.619657
 H  -0.168006  -1.076195  -0.603760
 H  -2.124466  -4.827895  -0.612360
 H   0.516026  -5.252067  -0.583956
 C  -4.020999  -2.892483  -0.618423
 C   2.924551  -4.001514  -0.584608
 C   4.401306   3.593803   0.530084
 C   5.530162   4.408948   0.523939
 H   3.816695   3.484724   1.436295
 C   6.305206   4.536524  -0.634455
 H   5.823657   4.905793   1.442175
 C   5.937641   3.820610  -1.778613
 C   4.804652   3.016763  -1.772682
 H   6.555149   3.905120  -2.664484
 H   4.519944   2.473659  -2.666393
 C  -3.641665   4.348460   0.564942
 C  -4.461908   5.473228   0.578349
 H  -3.544181   3.737753   1.454988
 C  -4.577465   6.279363  -0.560013
 H  -4.973674   5.738987   1.496831
 C  -3.845354   5.946262  -1.704253
 C  -3.036808   4.816566  -1.718387
 H  -3.922081   6.586431  -2.574627
 H  -2.484498   4.556431  -2.614032
 C  -4.401337  -3.593850   0.530047
 C  -5.530180  -4.409007   0.523893
 H  -3.816735  -3.484763   1.436263
 C  -6.305207  -4.536605  -0.634513
 H  -5.823679  -4.905848   1.442131
 C  -5.937634  -3.820696  -1.778670
 C  -4.804656  -3.016828  -1.772728
 H  -6.555126  -3.905225  -2.664550
 H  -4.519945  -2.473723  -2.666438
 C   3.641670  -4.348455   0.565010
 C   4.461918  -5.473231   0.578448
 H   3.544225  -3.737708   1.455033
 C   4.577425  -6.279416  -0.559869
 H   4.973722  -5.738932   1.496926
 C   3.845281  -5.946373  -1.704109
 C   3.036741  -4.816679  -1.718276
 H   3.921980  -6.586596  -2.574447
 H   2.484399  -4.556582  -2.613912
 C   7.554745   5.367490  -0.709777
 O   8.481314   5.086810  -1.440498
 N   7.542781   6.483112   0.115825
 H   6.674507   6.752976   0.569783
 N   8.617789   7.305811   0.193752
 C   8.494619   8.373969   0.887866
 C   9.594974   9.325490   1.048919
 H   7.551818   8.621740   1.395362
 C   9.397201   10.474133   1.827727
 C   10.423873   11.399687   2.000117
 H   8.434416   10.643274   2.299925
 C   11.660585   11.187037   1.395215
 H   10.257759   12.284100   2.604588
 C   11.865829   10.043871   0.616598
 H   12.461391   11.905778   1.527091
 C   10.845647   9.118770   0.442302
 H   12.827436   9.877245   0.144316
 H   10.996305   8.231449  -0.160255
 C  -5.412955   7.526939  -0.611017
 O  -5.121720   8.478875  -1.304179
 N  -6.545053   7.481648   0.190409
 H  -6.820439   6.596245   0.606539
 N  -7.375214   8.549413   0.287630
 C  -8.458533   8.396159   0.951629
 C  -9.419374   9.485627   1.130394
 H  -8.713028   7.434314   1.418353
 C  -10.585541   9.253800   1.872928
 C  -11.520376   10.269270   2.060877
 H  -10.761097   8.273225   2.304404
 C  -11.299556   11.528731   1.508086
 H  -12.418365   10.076740   2.636823
 C  -10.138896   11.768002   0.765913
 H  -12.025479   12.320906   1.652200
 C  -9.204520   10.759073   0.576261
 H  -9.965884   12.747374   0.334169
 H  -8.303638   10.936057   0.001634
 C  -7.554737  -5.367577  -0.709841
 O  -8.481284  -5.086923  -1.440606
 N  -7.542814  -6.483159   0.115810
 H  -6.674559  -6.753012   0.569813
 N  -8.617832  -7.305840   0.193743
 C  -8.494696  -8.373971   0.887904
 C  -9.595068  -9.325469   1.048966
 H  -7.551912  -8.621734   1.395436
 C  -9.397332  -10.474086   1.827822
 C  -10.424023  -11.399617   2.000222
 H  -8.434562  -10.643224   2.300050
 C  -11.660717  -11.186972   1.395282
 H  -10.257938  -12.284011   2.604730
 C  -11.865924  -10.043832   0.616615
 H  -12.461537  -11.905696   1.527165
 C  -10.845724  -9.118754   0.442310
 H  -12.827516  -9.877210   0.144303
 H  -10.996352  -8.231453  -0.160285
 C   5.412902  -7.527013  -0.610849
 O   5.121624  -8.478967  -1.303956
 N   6.545054  -7.481657   0.190477
 H   6.820439  -6.596222   0.606540
 N   7.375267  -8.549394   0.287683
 C   8.458632  -8.396058   0.951587
 C   9.419538  -9.485472   1.130330
 H   8.713124  -7.434176   1.418236
 C   10.585754  -9.253550   1.872756
 C   11.520652  -10.268967   2.060681
 H   10.761300  -8.272945   2.304166
 C   11.299845  -11.528467   1.507974
 H   12.418679  -10.076365   2.636543
 C   10.139134  -11.767832   0.765908
 H   12.025816  -12.320601   1.652070
 C   9.204697  -10.758957   0.576281
 H   9.966134  -12.747235   0.334231
 H   8.303775  -10.936012   0.001738






