%nproc=15
%mem=70GB
%chk=P_Hydrazide_Hydrazone.chk
#P B3LYP/6-311++G(d,p) EmpiricalDispersion=GD3 opt SCF=YQC

Comment

0 1
 C    3.834450000000000    2.028850000000000    0.170710000000000
 C    4.206330000000000    0.766460000000000    -0.028510000000000
 C    3.061750000000000    -0.118750000000000    -0.027720000000000
 C    2.370940000000000    1.922770000000000    0.075610000000000
 N    1.928970000000000    0.690610000000000    -0.011520000000000
 C    1.610010000000000    3.228620000000000    0.050410000000000
 C    0.261520000000000    3.197680000000000    0.091160000000000
 N    -0.610890000000000    2.132640000000000    0.135180000000000
 C    -1.936010000000000    2.503710000000000    0.103780000000000
 C    -0.610970000000000    4.367110000000000    0.089560000000000
 C    -1.888450000000000    3.964100000000000    0.143740000000000
 C    -3.061790000000000    1.761380000000000    0.025080000000000
 C    -2.951580000000000    0.254180000000000    -0.012510000000000
 N    -1.879610000000000    -0.503420000000000    -0.000070000000000
 C    -3.782560000000000    -1.754340000000000    0.057960000000000
 C    -4.212200000000000    -0.502070000000000    -0.047320000000000
 C    -0.176010000000000    -3.028340000000000    -0.060020000000000
 N    0.671370000000000    -1.928970000000000    -0.029400000000000
 C    1.995920000000000    -2.349370000000000    -0.010440000000000
 C    1.965000000000000    -3.733700000000000    0.015910000000000
 C    0.639340000000000    -4.146480000000000    -0.126480000000000
 C    3.147630000000000    -1.476470000000000    -0.015980000000000
 C    -1.620780000000000    -2.974640000000000    -0.017310000000000
 C    -2.336100000000000    -1.819480000000000    0.013870000000000
 H    4.463900000000001    2.885230000000000    0.286010000000000
 H    5.237850000000000    0.476960000000000    -0.118110000000000
 C    2.358930000000000    4.521340000000000    -0.050440000000000
 H    -0.306820000000000    1.166360000000000    0.052270000000000
 H    -0.301730000000000    5.398590000000000    0.063860000000000
 H    -2.734880000000000    4.629900000000000    0.185090000000000
 C    -4.397420000000000    2.434930000000000    -0.006460000000000
 H    -4.450990000000000    -2.596530000000000    0.127720000000000
 H    -5.226140000000000    -0.160350000000000    -0.095230000000000
 H    0.368460000000000    -0.960990000000000    -0.016620000000000
 H    2.820260000000000    -4.392510000000000    0.077770000000000
 H    0.310690000000000    -5.174130000000000    -0.203890000000000
 C    4.531580000000000    -2.102480000000000    -0.035610000000000
 C    -2.374400000000000    -4.291369999999999    0.032450000000000
 C    -4.741190000000000    3.311750000000000    -1.050370000000000
 C    -5.977000000000000    3.965120000000000    -1.062590000000000
 H    -4.031900000000000    3.519110000000000    -1.850140000000000
 C    -6.911260000000000    3.708380000000000    -0.062580000000000
 H    -6.208570000000000    4.674480000000000    -1.853500000000000
 C    -6.599060000000000    2.823450000000000    0.966560000000000
 C    -5.340520000000000    2.215570000000000    1.011330000000000
 H    -7.333480000000000    2.610180000000000    1.739570000000000
 H    -5.112220000000000    1.548090000000000    1.840350000000000
 C    3.256720000000000    4.734290000000000    -1.112880000000000
 C    4.070410000000000    5.869650000000000    -1.151690000000000
 H    3.370520000000000    3.985610000000000    -1.895730000000000
 C    3.946060000000000    6.847820000000000    -0.169600000000000
 H    4.807020000000000    5.983140000000000    -1.943480000000000
 C    3.020070000000000    6.683940000000000    0.858240000000000
 C    2.251750000000000    5.517520000000001    0.933110000000000
 H    2.906760000000000    7.458130000000000    1.613260000000000
 H    1.565100000000000    5.396900000000000    1.768870000000000
 C    4.872220000000000    -3.027410000000000    -1.039010000000000
 C    6.122890000000000    -3.651820000000000    -1.053390000000000
 H    4.145120000000000    -3.295470000000000    -1.803690000000000
 C    7.080580000000000    -3.314800000000000    -0.101320000000000
 H    6.344820000000000    -4.401200000000000    -1.808820000000000
 C    6.772130000000000    -2.389760000000000    0.892460000000000
 C    5.494670000000000    -1.823420000000000    0.950700000000000
 H    7.522030000000000    -2.113930000000000    1.629310000000000
 H    5.266900000000000    -1.133430000000000    1.760630000000000
 C    -3.297960000000000    -4.666250000000000    -0.957890000000000
 C    -3.944920000000000    -5.905850000000000    -0.903880000000000
 H    -3.528960000000000    -3.989670000000000    -1.777670000000000
 C    -3.627980000000000    -6.818279999999999    0.100320000000000
 H    -4.684150000000000    -6.165690000000000    -1.657210000000000
 C    -2.689640000000000    -6.480600000000001    1.070970000000000
 C    -2.091670000000000    -5.217730000000000    1.053630000000000
 H    -2.411560000000000    -7.200630000000000    1.836380000000000
 H    -1.358000000000000    -4.974810000000000    1.820860000000000
 C    -8.324692140000000    4.236362012000000    0.013714302000000
 O    -9.111203722000001    3.881308164000000    0.888818709000000
 N    -8.600057561000000    5.209170720000000    -0.938517564000000
 H    -7.904035971000000    5.527949548000000    -1.596045274000000
 N    -9.834667295999999    5.786776621000000    -0.966031742000000
 C    -10.045454707999999    6.629469438000000    -1.924850841000000
 C    -11.343084546000000    7.316389304000000    -2.074387169000000
 H    -9.270193152999999    6.861649553000000    -2.676877382000000
 C    -11.542148477000000    8.161661841999999    -3.169729523000000
 C    -12.768986417000001    8.809435236000001    -3.327401890000000
 H    -10.758671106000000    8.319479490999999    -3.905352027000000
 C    -13.788414036000001    8.614441063999999    -2.393891483000000
 H    -12.933646862000000    9.465468888000000    -4.178614354000000
 C    -13.586406569999999    7.771599220000000    -1.300663019000000
 H    -14.743683503999998    9.118782694000000    -2.518222085000001
 C    -12.363779618000001    7.119966254000000    -1.139380543000000
 H    -14.380058344000000    7.618579124000000    -0.573590411000000
 H    -12.211907973000001    6.460771100000000    -0.286459246000000
 C    4.586503731000000    8.057894593000000    -0.116902175000000
 O    4.232732722000000    8.894162495000000    0.711332996000000
 N    5.610177274000000    8.250315483000000    -1.035594236000000
 H    5.922926550000000    7.514732506000000    -1.651641522000000
 N    6.246095784000000    9.455234164000000    -1.084842814000000
 C    7.137137623000000    9.588860670000001    -2.013328130000000
 C    7.890228548000000    10.846818774000001    -2.182025133000000
 H    7.363667217999999    8.774346841000000    -2.724477598000000
 C    8.788996799000000    10.963161367000000    -3.246246453000000
 C    9.500015586000000    12.151915841999999    -3.422079782000000
 H    8.940238360000000    10.144491578000000    -3.943949424000000
 C    9.314545731000001    13.215716072999999    -2.537417655000000
 H    10.198094118000000    12.252312018000000    -4.249523341000000
 C    8.418152650000000    13.096240005000000    -1.475088714000000
 H    9.868198260000000    14.141271612000001    -2.675888432000000
 C    7.703329993000000    11.912009117000000    -1.295979819000000
 H    8.272536960000000    13.924504663000000    -0.786099169000000
 H    7.002628873000000    11.824590644000001    -0.467454662000000
 C    8.387891566000000    -4.036488821000000    -0.035276456000000
 O    9.190352957000000    -3.624458784999999    0.799444094000000
 N    8.658587907999999    -5.046114360000000    -0.949775327000000
 H    7.951842036000000    -5.409903403000000    -1.571528082000000
 N    9.904839927999999    -5.597590809000000    -0.986875633000000
 C    10.107835861000000    -6.478968454000000    -1.912004100000000
 C    11.416140033000000    -7.143898050000000    -2.067798950000000
 H    9.317262770000001    -6.762351298000000    -2.629757785000000
 C    11.603641821000000    -8.034417470999999    -3.128791518000000
 C    12.840075478999999    -8.662155823999999    -3.292433333000000
 H    10.803616479000000    -8.242953594999999    -3.833316752000000
 C    13.880606894000000    -8.402248949000001    -2.398878707000000
 H    12.995724859999999    -9.353137762999998    -4.117280655000000
 C    13.690159752000000    -7.514318331000000    -1.339800348000000
 H    14.843303173000001    -8.891062609000000    -2.527857056000000
 C    12.457947402000000    -6.882467620000000    -1.172852376000000
 H    14.500222351000000    -7.310749212000000    -0.643890105000000
 H    12.315054046000002    -6.187973240000000    -0.346815433000000
 C    -4.344469119000000    -8.275625313000001    0.205683919000000
 O    -3.962037211000000    -9.066430469000000    1.065244544000000
 N    -5.361298539000000    -8.538513664000000    -0.703093321000000
 H    -5.699216948000000    -7.838591677000000    -1.346777284000000
 N    -5.955696100000000    -9.765435345000000    -0.704330602000000
 C    -6.841983520000000    -9.965463550999999    -1.625406010000000
 C    -7.551715562000000    -11.254005749999999    -1.743738769000000
 H    -7.096463278000000    -9.187479424999999    -2.367337782000000
 C    -8.446363842000000    -11.442325106000000    -2.801106851000000
 C    -9.116415267000001    -12.660598822000001    -2.929335225000000
 H    -8.625736719000001    -10.657097439999999    -3.529891148000000
 C    -8.894392244000001    -13.682176042000000    -2.004249911000000
 H    -9.810951340000001    -12.816919680000000    -3.751064686000000
 C    -8.002225481000000    -13.490882198000000    -0.948890732000000
 H    -9.416148411000000    -14.630778140000000    -2.105654530000000
 C    -7.328216685000000    -12.276868572000001    -0.817219619000000
 H    -7.828150481000000    -14.286223314000001    -0.228430275000000
 H    -6.630615774000000    -12.133376363000000    0.006091343000000




