%nproc=15
%mem=70GB
%chk=Triazine-TrisPhenyl_Hydrazide_Hydrazone.chk
#P B3LYP/6-311++G(d,p) EmpiricalDispersion=GD3 opt SCF=YQC

Comment

0 1
 C    4.027462051000000    -3.893913718000000    0.310066179000000
 C    2.672148051000000    -4.262318718000000    0.319743179000000
 C    1.678672051000000    -3.300991718000001    0.229140179000000
 C    2.003629051000000    -1.937063718000000    0.160580179000000
 C    3.355470051000000    -1.566913718000000    0.187692179000000
 C    4.354395051000000    -2.527048718000000    0.261396179000000
 C    0.941359051000000    -0.909939718000000    0.077892179000000
 N    1.312939051000000    0.376982282000000    0.037767179000000
 C    0.318010051000000    1.271410282000000    -0.038992821000000
 N    -0.981642949000000    0.947974282000000    -0.075637821000000
 C    -1.260558949000000    -0.362144718000000    -0.031325821000000
 N    -0.332144949000000    -1.325265718000000    0.045418179000000
 C    0.676958051000000    2.706621282000000    -0.083768821000000
 C    -0.317350949000000    3.691753282000000    -0.190296821000000
 C    0.018704051000000    5.034651282000000    -0.245812821000000
 C    1.360665051000000    5.440586282000000    -0.161808821000000
 C    2.359252051000000    4.454275282000000    -0.075031821000000
 C    2.018771051000000    3.109724282000000    -0.036659821000000
 C    -2.682392949000000    -0.770638718000000    -0.066681821000000
 C    -3.700649949000000    0.190456282000000    -0.135975821000000
 C    -5.035099948999999    -0.188277718000000    -0.165449821000000
 C    -5.391426949000000    -1.548090718000000    -0.125807821000000
 C    -4.369830949000000    -2.511469718000000    -0.093439821000000
 C    -3.039347949000000    -2.128166718000000    -0.047251821000000
 H    0.636350051000000    -3.590416718000000    0.220005179000000
 H    2.423007051000000    -5.314639718000000    0.386235179000000
 H    5.392662051000000    -2.220384718000000    0.316972179000000
 H    3.609547051000000    -0.515584718000000    0.158735179000000
 H    -1.353435949000000    3.384405282000000    -0.238761821000000
 H    -0.746394949000000    5.795773282000000    -0.341783821000000
 H    3.403496051000000    4.745260282000000    -0.073396821000000
 H    2.789534051000000    2.352613282000000    0.021499179000000
 H    -3.429036949000000    1.237058282000000    -0.175087821000000
 H    -5.807122949000000    0.567416282000000    -0.254919821000000
 H    -4.647001949000000    -3.558870718000000    -0.092107821000000
 H    -2.256291949000000    -2.873402718000000    -0.005591821000000
 C    5.162204984000000    -4.869091703000000    0.388216395000000
 O    6.314183945000000    -4.449180067000000    0.304013533000000
 N    4.826746183000001    -6.206238376000000    0.556841987000000
 H    3.873363478000000    -6.506315900000000    0.696210494000000
 N    5.814648881000000    -7.145527293000000    0.577612028000000
 C    5.425371103000000    -8.376420484000000    0.662825563000000
 C    6.393508562000000    -9.490121992000001    0.683849860000000
 H    4.355280453000000    -8.646609377000001    0.711671899000000
 C    5.917229024000000    -10.804146296000001    0.703469143000000
 C    6.823366841000000    -11.866415544000001    0.713497933000000
 H    4.851438918000000    -11.013838530999999    0.705539117000000
 C    8.196491940000000    -11.615068005000001    0.706501106000000
 H    6.461471179000000    -12.891579629000001    0.724723068000000
 C    8.669091029000001    -10.302562797000000    0.688667276000000
 H    8.901168293000000    -12.443162907000000    0.713458597000000
 C    7.768559305000000    -9.237509413000000    0.676092526000000
 H    9.738310179999999    -10.105930068999999    0.682434771000000
 H    8.142036359000000    -8.215110302999999    0.658977154000000
 C    1.638885736000000    6.911754524000000    -0.216382953000000
 O    0.708655794000000    7.685395675000000    -0.432306675000000
 N    2.954515754000000    7.307081099000000    -0.012023030000000
 H    3.679333934000000    6.650154418000000    0.235958071000000
 N    3.277658767000000    8.628171043000000    -0.106610327000000
 C    4.532584409000000    8.915766015000001    0.021246415000000
 C    5.016666094999999    10.306884268999999    -0.071047324000000
 H    5.294455987000000    8.134357304000000    0.192810188000000
 C    6.390462973000000    10.554463344000000    0.001573096000000
 C    6.861324969000000    11.865446253000000    -0.094422054000000
 H    7.100409559000000    9.741866990000000    0.126259427000000
 C    5.963203430000000    12.921315708000000    -0.259390152000000
 H    7.928551392000000    12.066525537000000    -0.042936562000000
 C    4.592446918000000    12.671506098000000    -0.329814648000000
 H    6.331159317000000    13.941741044000000    -0.334881435000000
 C    4.116536492000000    11.363703630000000    -0.236991208000000
 H    3.892353142000000    13.493150813000000    -0.459049060000000
 H    3.046297200000000    11.173380256000000    -0.295667083000000
 C    -6.804368906000000    -2.045086797000000    -0.162015626000000
 O    -7.007613469000000    -3.252842745000000    -0.264429714000000
 N    -7.806290458000000    -1.087455376000000    -0.072440571000000
 H    -7.602701212000000    -0.111670129000000    0.085049920000000
 N    -9.110603900999999    -1.475024719000000    -0.157312531000000
 C    -9.987267331000000    -0.523656130000000    -0.141324405000000
 C    -11.432448204000000    -0.807079452000000    -0.237171552000000
 H    -9.692550605999999    0.538477567000000    -0.067188972000000
 C    -12.332396076000000    0.261248028000000    -0.288719689000000
 C    -13.701433867000000    0.005910505000000    -0.389419995000000
 H    -11.983793693000001    1.289531611000000    -0.257209062000000
 C    -14.166464182000000    -1.309501343000000    -0.435632055000000
 H    -14.408034204000000    0.831001540000000    -0.434103549000000
 C    -13.266142258000000    -2.373883535000000    -0.382257451000000
 H    -15.232783982000001    -1.507070924000000    -0.514920641000000
 C    -11.897281956000000    -2.124790338000000    -0.284133671000000
 H    -13.627396968999999    -3.398618040000000    -0.418960220000000
 H    -11.198355046000000    -2.958531416000000    -0.245989528000000




