%nproc=15
%mem=70GB
%chk=Triptycene_Cyanohydrine_Benzobisoxazole.chk
#P B3LYP/6-311++G(d,p) EmpiricalDispersion=GD3 opt SCF=YQC

Comment

0 1
 C    0.272195836000000    2.681033257000000    -1.400538316000000
 C    0.311131515000000    3.829187460000000    -0.590956321000000
 C    0.129632804000000    3.784738244000000    0.767097734000000
 C    -0.047149882000000    2.584579278000000    1.420446869000000
 C    2.245076159000000    -1.299742242000000    -1.382727514000000
 C    -0.118856755000000    0.033861080000000    -1.396352891000000
 C    -0.076977300000000    0.040623407000000    1.218318029000000
 C    -1.290021871000000    -0.679699059000000    0.673305610000000
 C    -1.302167458000000    -0.717261699000000    -0.719085251000000
 C    -2.253935823000000    -1.319248827000000    1.425779786000000
 C    -0.006007034000000    1.469569518000000    -0.770563684000000
 C    -0.070922683000000    1.431024922000000    0.636285190000000
 C    1.125873001000000    -0.656391004000000    0.619017246000000
 C    1.137114692000000    -0.678536018000000    -0.793993173000000
 H    -0.055779818000000    0.045740369000000    2.198056076000000
 H    -2.239232395000001    -1.267638972000000    2.354192849000000
 C    3.261618008000000    -1.846694437000000    -0.595423639000000
 C    -2.283054285000000    -1.466527538000000    -1.355444901000000
 C    -3.245654855000000    -2.040431504000000    0.776568015000000
 C    2.138849204000000    -1.196354654000000    1.380397880000000
 C    3.216747284000000    -1.797909246000000    0.767096556000000
 H    -2.295152799000000    -1.528545668000000    -2.283029221000000
 C    -3.244980052000000    -2.122246986000000    -0.598484363000000
 H    2.096362228000000    -1.155535838000000    2.307968124000000
 H    -0.224468669000000    0.049694940000000    -2.481108753000000
 H    2.317228639000000    -1.358346928000000    -2.468756018000000
 H    0.450744007000000    2.728276706000000    -2.474776848000000
 H    -0.162458610000000    2.549458407000000    2.503761286000000
 N    0.215424054000000    5.112192507999999    1.228669086000000
 O    0.423014784000000    5.082004020000000    -1.029815924000000
 C    0.369714480000000    5.824909802000000    0.125097818000000
 C    0.595464274000000    8.022796203000000    -1.058519746000000
 C    0.669980659000000    9.418474015999999    -1.025560320000000
 H    0.641931089000000    7.518745016000000    -2.021561894000000
 C    0.611123840000000    10.092458799999999    0.192460366000000
 H    0.772580626000000    9.978012190999999    -1.951963299000000
 C    0.479232517000000    9.373785034999999    1.378286659000000
 H    0.667496610000000    11.177741166000001    0.217581144000000
 C    0.404412418000000    7.978963962000000    1.344563923000000
 H    0.432944842000000    9.895982031999999    2.330515295000000
 H    0.299746322000000    7.430066115000000    2.279437298000000
 C    0.460102643000000    7.283564014000000    0.126620427000000
 N    -4.407193505000000    -2.683030683000000    1.225977597000000
 O    -4.283562711000000    -2.842229920000000    -1.033254756000000
 C    -4.964776031000000    -3.148230371000000    0.120386354000000
 C    -6.755007677000000    -4.445359278000000    -1.060776374000000
 C    -7.928211365000000    -5.204956208000000    -1.026700194000000
 H    -6.281322922000000    -4.256716454000000    -2.021876567000000
 C    -8.556706319000000    -5.465142553000001    0.189273147000000
 H    -8.349320421000000    -5.593946065000000    -1.950381012000000
 C    -8.015372027000000    -4.966222982000000    1.371689208000000
 H    -9.468027945999999    -6.057129907000000    0.215552864000000
 C    -6.842608711000000    -4.207487970000000    1.336925963000000
 H    -8.502754741000000    -5.167068399000000    2.322315757000000
 H    -6.429711397000000    -3.825134740000000    2.269424692000000
 C    -6.194991197000000    -3.937162646000000    0.121366575000000
 N    4.350895456000000    -2.503107483000000    1.228293596000000
 O    4.361204041000000    -2.448210861000000    -1.039224847000000
 C    4.987309175000000    -2.841476543000000    0.119183604000000
 C    6.933030112000000    -3.884779850000000    -1.067537250000000
 C    8.154146747000000    -4.564703033000000    -1.033859306000000
 H    6.513886501000000    -3.609107745000000    -2.032938963000000
 C    8.717111647999999    -4.929228937000000    0.187404544000000
 H    8.665199284000000    -4.807748668000000    -1.962076050000000
 C    8.060989940000001    -4.616552735000000    1.375600317000000
 H    9.667364647999998    -5.456483198000000    0.213268393000000
 C    6.840818582000000    -3.936655749000000    1.341204978000000
 H    8.496986485000001    -4.899227867000000    2.330363853000000
 H    6.339753604000000    -3.697266255000000    2.278146077000000
 C    6.259961067000000    -3.559947493000000    0.120236393000000




