%nproc=15
%mem=70GB
%chk=Triptycene_Cyanohydrine_Benzobisoxazole_freq.chk
#P B3LYP/6-311++G(d,p) EmpiricalDispersion=GD3 freq(noraman) SCF=YQC

Restart from Triptycene_Cyanohydrine_Benzobisoxazole.log

0 1
 C   2.585742  -0.110567   1.342573
 C   3.750916  -0.160360   0.588803
 C   3.780868  -0.161666  -0.809873
 C   2.585853  -0.110586  -1.538959
 C  -1.196403   2.293475   1.342534
 C   0.000847  -0.000086   1.193635
 C   0.000856  -0.000074  -1.392872
 C  -0.756513  -1.191242  -0.808270
 C  -0.755668  -1.189972   0.607091
 C  -1.387634  -2.183340  -1.538944
 C   1.409574  -0.060317   0.607094
 C   1.411092  -0.060395  -0.808252
 C  -0.652191   1.251254  -0.808261
 C  -0.651534   1.249893   0.607079
 H   0.000872  -0.000040  -2.482481
 H  -1.390741  -2.187921  -2.622265
 C  -1.736076   3.327349   0.588792
 C  -1.387506  -2.183287   1.342547
 C  -2.029719  -3.192521  -0.809868
 C  -1.196316   2.293637  -1.538934
 C  -1.749856   3.353954  -0.809880
 H  -1.393223  -2.192159   2.425403
 C  -2.013582  -3.167263   0.588797
 H  -1.198904   2.298522  -2.622255
 H   0.000868  -0.000096   2.283642
 H  -1.201408   2.302733   2.425392
 H   2.596290  -0.110936   2.425434
 H   2.591375  -0.110769  -2.622282
 N   5.106031  -0.218295  -1.224553
 O   5.047247  -0.215731   1.028355
 C   5.800983  -0.248006  -0.128980
 C   7.853026  -0.335906   1.279745
 C   9.238966  -0.395398   1.389555
 H   7.234329  -0.309358   2.167646
 C   10.033457  -0.429553   0.244085
 H   9.699213  -0.415134   2.370792
 C   9.435685  -0.403921  -1.017645
 H   11.112919  -0.475891   0.332938
 C   8.052720  -0.344535  -1.136467
 H   10.050527  -0.430350  -1.910020
 H   7.577082  -0.324175  -2.108982
 C   7.250373  -0.310091   0.014202
 N  -2.741954  -4.311431  -1.224553
 O  -2.710197  -4.261904   1.028358
 C  -3.115442  -4.898252  -0.128985
 C  -4.218418  -6.630894   1.279722
 C  -4.963395  -7.801094   1.389532
 H  -3.885785  -6.108522   2.167607
 C  -5.390511  -8.471880   0.244065
 H  -5.210758  -8.189715   2.370772
 C  -5.069220  -7.967139  -1.017664
 H  -5.970774  -9.383296   0.332920
 C  -4.325825  -6.799458  -1.136485
 H  -5.399756  -8.486246  -1.910040
 H  -4.070186  -6.397833  -2.108996
 C  -3.894502  -6.122040   0.014181
 N  -2.363661   4.529752  -1.224579
 O  -2.336613   4.477527   1.028332
 C  -2.685573   5.146377  -0.129014
 C  -3.635871   6.967224   1.279707
 C  -4.277874   8.196932   1.389539
 H  -3.349092   6.418332   2.167590
 C  -4.646118   8.901767   0.244077
 H  -4.490900   8.605373   2.370783
 C  -4.369394   8.371298  -1.017663
 H  -5.146156   9.859548   0.332946
 C  -3.728778   7.144223  -1.136504
 H  -4.654367   8.916762  -1.910032
 H  -3.508603   6.722124  -2.109021
 C  -3.356913   6.432418   0.014156






