%nproc=15
%mem=70GB
%chk=Triazine_benzene_freq.chk
#P B3LYP/6-311++G(d,p) EmpiricalDispersion=GD3 freq(noraman) SCF=YQC

Restart from Triazine_benzene.log

0 1
 C  -1.311009  -0.000028   0.000000
 N  -0.682967   1.182760   0.000000
 C   0.655433   1.135277   0.000000
 N   1.365732   0.000018   0.000000
 C   0.655433  -1.135349   0.000000
 N  -0.682880  -1.182794   0.000000
 C  -2.794059  -0.000039   0.000000
 C  -3.503404   1.209173   0.000000
 C  -4.894315   1.207211   0.000000
 C  -5.593681  -0.000054   0.000000
 C  -4.894316  -1.207308   0.000000
 C  -3.503396  -1.209253   0.000000
 H  -2.952054   2.140075   0.000000
 H  -5.434118   2.147411   0.000000
 H  -6.678060  -0.000027   0.000000
 H  -5.434086  -2.147526   0.000000
 H  -2.952045  -2.140152   0.000000
 C   1.397047  -2.419635   0.000000
 C   0.704616  -3.638633   0.000000
 C   1.401885  -4.842152   0.000000
 C   2.797089  -4.844049   0.000000
 C   3.492803  -3.634688   0.000000
 C   2.798921  -2.429203   0.000000
 H  -0.377246  -3.626727   0.000000
 H   0.857635  -5.779784   0.000000
 H   3.339372  -5.783097   0.000000
 H   4.576940  -3.631945   0.000000
 H   3.329338  -1.486216   0.000000
 C   1.396903   2.419651   0.000000
 C   0.704390   3.638583   0.000000
 C   1.401579   4.842158   0.000000
 C   2.796773   4.844163   0.000000
 C   3.492582   3.634843   0.000000
 C   2.798787   2.429322   0.000000
 H  -0.377472   3.626618   0.000000
 H   0.857246   5.779742   0.000000
 H   3.338986   5.783251   0.000000
 H   4.576719   3.632182   0.000000
 H   3.329268   1.486367   0.000000






