%nproc=15
%mem=70GB
%chk=Triazine_benzene.chk
#P B3LYP/6-311++G(d,p) EmpiricalDispersion=GD3 opt SCF=YQC

Comment

0 1
 C    0.000000000000000    1.310741994000000    0.000000000000000
 N    1.182797994000000    0.682806999000000    0.000000000000000
 C    1.135334995000000    -0.655569999000000    0.000000000000000
 N    0.000133000000000    -1.365792992000000    0.000000000000000
 C    -1.135236996000000    -0.655504995000000    0.000000000000000
 N    -1.182666996000000    0.682686997000000    0.000000000000000
 C    -0.000146000000000    2.794899989000000    0.000000000000000
 C    1.208380992000000    3.505007980000000    0.000000000000000
 C    1.206392995000000    4.895928978000000    0.000000000000000
 C    -0.000583000000000    5.595184990000000    0.000000000000000
 C    -1.207354997000000    4.895619976000000    0.000000000000000
 C    -1.208883996000000    3.504675985000000    0.000000000000000
 H    2.139071989000000    2.953668984000000    0.000000000000000
 H    2.146539992000000    5.435924982000000    0.000000000000000
 H    -0.000645000000000    6.679580958000000    0.000000000000000
 H    -2.147688989000000    5.435278962000000    0.000000000000000
 H    -2.139414991000000    2.953064986000000    0.000000000000000
 C    -2.420506987000000    -1.397602993000000    0.000000000000000
 C    -3.639589984000000    -0.705740994000000    0.000000000000000
 C    -4.843355974000000    -1.402593991000000    0.000000000000000
 C    -4.845742976000000    -2.797490988000000    0.000000000000000
 C    -3.636677980000000    -3.493088983000000    0.000000000000000
 C    -2.431136986999999    -2.799271987000000    0.000000000000000
 H    -3.627159982000000    0.375928998000000    0.000000000000000
 H    -5.780932964000000    -0.858155995000000    0.000000000000000
 H    -5.784909995000000    -3.339595985000000    0.000000000000000
 H    -3.634165981000000    -4.577274979000000    0.000000000000000
 H    -1.488298992000000    -3.329544984000000    0.000000000000000
 C    2.420767987000000    -1.397476996000000    0.000000000000000
 C    3.639821981000000    -0.705604995000000    0.000000000000000
 C    4.843621976000000    -1.402438995000000    0.000000000000000
 C    4.846096974000000    -2.797313984000000    0.000000000000000
 C    3.637054982000000    -3.492974983000000    0.000000000000000
 C    2.431507988000000    -2.799191986000000    0.000000000000000
 H    3.627401980000000    0.376056998000000    0.000000000000000
 H    5.781166966000000    -0.857942995000000    0.000000000000000
 H    5.785293966000000    -3.339372985000000    0.000000000000000
 H    3.634610982000000    -4.577160978000000    0.000000000000000
 H    1.488696991000000    -3.329523986000000    0.000000000000000




