%nproc=15
%mem=70GB
%chk=2_Phenyl_C_Catechol_BoronateEster_freq.chk
#P B3LYP/6-311++G(d,p) EmpiricalDispersion=GD3 freq(noraman) SCF=YQC

Restart from 2_Phenyl_C_Catechol_BoronateEster.log

0 1
 C   1.151366   0.698189  -0.001723
 C   1.151447  -0.697696   0.001818
 C   0.000214  -1.479962   0.006687
 C  -1.151385  -0.698223   0.001764
 C  -1.151464   0.697723  -0.001767
 C  -0.000253   1.479958  -0.006644
 C   0.001423  -2.980488  -0.001194
 C  -0.001261   2.980482   0.001272
 H   0.905184   3.368783  -0.465639
 H  -0.871898   3.368558  -0.530184
 H  -0.039748   3.365820   1.025431
 H  -0.909105  -3.368782   0.457629
 H   0.049357  -3.365840  -1.024944
 H   0.867315  -3.368558   0.538039
 B   3.251639   0.000187   0.000053
 C   4.789185   0.000181   0.000013
 C   5.507401   1.207698   0.000125
 C   5.507333  -1.207376  -0.000149
 C   6.899421   1.209048   0.000154
 C   6.899354  -1.208794  -0.000259
 C   7.596502   0.000107  -0.000073
 O   2.458486   1.144917  -0.002881
 O   2.458490  -1.144568   0.003016
 H   7.442072   2.147846   0.000364
 H   7.441952  -2.147623  -0.000502
 H   4.965618  -2.147035  -0.000530
 H   4.965753   2.147394   0.000542
 H   8.681063   0.000077  -0.000107
 B  -3.251662  -0.000186  -0.000057
 C  -4.789208  -0.000179  -0.000038
 C  -5.507427  -1.207695  -0.000181
 C  -5.507357   1.207378   0.000132
 C  -6.899446  -1.209044  -0.000233
 C  -6.899377   1.208798   0.000221
 C  -7.596526  -0.000103   0.000004
 O  -2.458519  -1.144915   0.002895
 O  -2.458522   1.144564  -0.002981
 H  -7.442098  -2.147842  -0.000466
 H  -7.441975   2.147627   0.000472
 H  -4.965642   2.147037   0.000539
 H  -4.965780  -2.147391  -0.000606
 H  -8.681087  -0.000072   0.000021






