%nproc=15
%mem=70GB
%chk=An_CarboxylicAnhydride_Imide_freq.chk
#P B3LYP/6-311++G(d,p) EmpiricalDispersion=GD3 freq(noraman) SCF=YQC NoSymm

Restart from An_CarboxylicAnhydride_Imide.log

0 1
 C   3.643481   0.569547  -0.121536
 C   3.593858  -0.822890   0.145565
 C   2.416218  -1.490634   0.279982
 C   1.196486  -0.753716   0.142260
 C   2.516332   1.317951  -0.263714
 C   1.247166   0.668161  -0.134251
 C  -0.049065  -1.376429   0.267638
 C  -1.247166  -0.668170   0.134210
 C   0.049065   1.376421  -0.267679
 C  -1.196486   0.753708  -0.142301
 C  -2.516332  -1.317960   0.263675
 C  -3.643481  -0.569555   0.121495
 C  -3.593858   0.822881  -0.145607
 C  -2.416219   1.490626  -0.280021
 H   2.395601  -2.554885   0.485341
 H   2.571555   2.380991  -0.468959
 H  -0.087022  -2.440880   0.474671
 H   0.087022   2.440872  -0.474712
 H  -2.571554  -2.380999   0.468920
 H  -2.395602   2.554877  -0.485380
 C   5.068829   0.978445  -0.205878
 C   4.986534  -1.330399   0.239535
 N   5.819818  -0.203712   0.019450
 O   5.363258  -2.456589   0.455062
 O   5.524802   2.075426  -0.418945
 C   7.246155  -0.253592   0.024182
 C   7.905859  -1.288445  -0.641633
 H   7.334814  -2.053695  -1.148861
 C   9.296925  -1.334629  -0.629087
 H   9.807534  -2.141488  -1.141832
 C   10.029230  -0.350672   0.033293
 H   11.112461  -0.388457   0.036822
 C   9.362963   0.682044   0.691140
 H   9.925190   1.451475   1.207399
 C   7.972007   0.732882   0.694594
 H   7.452360   1.536193   1.198220
 C  -5.068830  -0.978453   0.205836
 C  -4.986534   1.330390  -0.239579
 N  -5.819818   0.203707  -0.019474
 O  -5.363258   2.456585  -0.455082
 O  -5.524802  -2.075430   0.418926
 C  -7.246155   0.253595  -0.024171
 C  -7.905838   1.288452   0.641658
 H  -7.334777   2.053700   1.148870
 C  -9.296904   1.334643   0.629145
 H  -9.807497   2.141506   1.141901
 C  -10.029230   0.350689  -0.033215
 H  -11.112460   0.388478  -0.036718
 C  -9.362983  -0.682033  -0.691075
 H  -9.925226  -1.451463  -1.207318
 C  -7.972028  -0.732878  -0.694562
 H  -7.452397  -1.536194  -1.198199






