%nproc=15
%mem=70GB
%chk=TetraPhenylMethane_Aldehyde_Hydrazone.chk
#P B3LYP/6-311++G(d,p) EmpiricalDispersion=GD3 opt SCF=YQC

Comment

0 1
 C    -0.000000000000000    0.000000000000000    -0.000000000000000
 C    -0.334711000000000    -3.282421000000000    -2.523411000000000
 C    -3.282421000000000    0.334711000000000    2.523412000000000
 C    0.334711000000000    3.282422000000000    -2.523411000000000
 C    3.282421000000000    -0.334711000000000    2.523412000000000
 C    -1.442915000000000    -2.894269000000000    -1.866366000000000
 C    -2.894268000000000    1.442915000000000    1.866365000000000
 C    1.442915000000000    2.894269000000000    -1.866366000000000
 C    2.894269000000000    -1.442914000000000    1.866365000000000
 C    -1.355721000000000    -1.850757000000000    -1.055712000000000
 C    -1.850756000000000    1.355721000000000    1.055713000000000
 C    1.355722000000000    1.850757000000000    -1.055712000000000
 C    1.850757000000000    -1.355721000000000    1.055713000000000
 C    -0.132197000000000    -1.201023000000000    -0.847056000000000
 C    -1.201023000000000    0.132197000000000    0.847056000000000
 C    0.132198000000000    1.201023000000000    -0.847056000000000
 C    1.201024000000000    -0.132198000000000    0.847056000000000
 C    0.964755000000000    -1.566674000000000    -1.552049000000000
 C    -1.566674000000000    -0.964756000000000    1.552050000000000
 C    -0.964756000000000    1.566674000000000    -1.552049000000000
 C    1.566675000000000    0.964754000000000    1.552050000000000
 C    0.874751000000000    -2.604561000000000    -2.363589000000000
 C    -2.604559000000000    -0.874752000000000    2.363589000000000
 C    -0.874750000000000    2.604559000000000    -2.363589000000000
 C    2.604560000000000    0.874750000000000    2.363589000000000
 H    -2.387983000000000    -3.392116000000000    -1.994223000000000
 H    -3.392115000000000    2.387984000000000    1.994223000000000
 H    2.387983000000000    3.392116000000000    -1.994223000000000
 H    3.392116000000000    -2.387983000000000    1.994223000000000
 H    -2.258597000000000    -1.552610000000000    -0.616202000000000
 H    -1.552610000000000    2.258597000000000    0.616202000000000
 H    2.258598000000000    1.552609000000000    -0.616202000000000
 H    1.552610000000000    -2.258598000000000    0.616202000000000
 H    1.907010000000000    -1.051950000000000    -1.461484000000000
 H    -1.051950000000000    -1.907011000000000    1.461484000000000
 H    -1.907010000000000    1.051952000000000    -1.461484000000000
 H    1.051951000000000    1.907009000000000    1.461484000000000
 H    1.760751000000000    -2.888643000000000    -2.847495000000000
 H    -2.888643000000000    -1.760751000000000    2.847496000000000
 H    -1.760749000000000    2.888644000000000    -2.847495000000000
 H    2.888643000000000    1.760751000000000    2.847496000000000
 H    -0.516767535000000    -9.413097217000001    -8.055252565000000
 C    -1.407100262000000    -9.225494923999999    -7.459528421000000
 C    -2.528808330000000    -10.036851151000000    -7.618604804000000
 H    -2.512405594000000    -10.855745806000000    -8.333581481000000
 C    -3.675801114000000    -9.791127890000000    -6.868644034000000
 H    -4.557383960000000    -10.414267374000000    -6.997033530000000
 C    -3.697092850000000    -8.737070283000000    -5.952894642000001
 H    -4.603294384000000    -8.553130926000000    -5.377081368000000
 C    -2.572111669000000    -7.915555175000000    -5.776646827000000
 C    -2.679056875000000    -6.792542271000000    -4.790682414000000
 C    -1.427252637000000    -8.164481129000000    -6.547789641000000
 H    -0.541799069000000    -7.542912677000000    -6.485590361000000
 O    -3.781582047000000    -6.512537780000001    -4.325379117000000
 N    -1.500730391000000    -6.134848996000000    -4.462178717000000
 H    -0.602644640000000    -6.439396002000000    -4.807289986999999
 N    -1.544826256000000    -5.068377777000000    -3.614038695000000
 C    -0.422186951000000    -4.458100273000000    -3.411211324000000
 H    0.513532251000000    -4.782300499000000    -3.900911018000000
 H    -10.037003200000001    0.270008507000000    7.276415204000000
 C    -9.699167403000001    1.219759654000000    6.868231453000000
 C    -10.385920240000001    2.390749296000000    7.182853462000000
 H    -11.254279775000001    2.354782887000000    7.836081821000000
 C    -9.965721221000001    3.606748480000000    6.650695311000000
 H    -10.504731251000001    4.521605157000000    6.884105767000000
 C    -8.852228508000000    3.651547172000000    5.809140333000000
 H    -8.538292214000000    4.609163414000000    5.395605609000000
 C    -8.146055359000000    2.480947379000000    5.488908182999999
 C    -6.974791162000000    2.606976256000000    4.563177129000000
 C    -8.587199676999999    1.260064618000000    6.020099810000000
 H    -8.108348184000000    0.318165431000000    5.779743240000000
 O    -6.794398845000000    3.670104042000000    3.973525237000000
 N    -6.156181609000000    1.492293328000000    4.435549566000000
 H    -6.292068248000000    0.660914027000000    4.991204101000000
 N    -5.108243105000000    1.529059304000000    3.564274662000000
 C    -4.433923246000000    0.431749210000000    3.441393140000000
 H    -4.696991461000000    -0.479791792000000    4.007405611000000
 H    0.516768040000000    9.413098919999999    -8.055251770000000
 C    1.407100242000000    9.225497458000000    -7.459526579000000
 C    2.528807691000000    10.036854817000000    -7.618601546000000
 H    2.512404994000000    10.855749523000000    -8.333578165000000
 C    3.675799824000000    9.791132627000000    -6.868639427000000
 H    4.557382202000000    10.414273002000000    -6.997027812000000
 C    3.697091515000000    8.737074955000001    -5.952890109000000
 H    4.603292544000000    8.553136446000000    -5.377075771000000
 C    2.572110942000000    7.915558710000000    -5.776643716000000
 C    2.679056088000000    6.792545820000000    -4.790679282000000
 C    1.427252584000000    8.164483597000000    -6.547787875000000
 H    0.541799560000000    7.542914257000000    -6.485589711000000
 O    3.781580983000000    6.512542383000000    -4.325374694000000
 N    1.500729867000000    6.134851340000000    -4.462177054000000
 H    0.602644225000000    6.439397484000000    -4.807289369000000
 N    1.544825780000000    5.068380085000000    -3.614037081000000
 C    0.422186841000000    4.458101444000000    -3.411211108000000
 H    -0.513532099000000    4.782300784000000    -3.900911890000000
 H    10.037001248999999    -0.270008662000000    7.276417978000000
 C    9.699164821000000    -1.219760000000000    6.868235196000000
 C    10.385916534000000    -2.390749856000000    7.182858865000000
 H    11.254275824000000    -2.354783417000000    7.836087549000000
 C    9.965716711000001    -3.606749306000000    6.650701960000000
 H    10.504725866999999    -4.521606166000000    6.884113714000000
 C    8.852224314000001    -3.651548041000000    5.809146565000000
 H    8.538287385000000    -4.609164502000000    5.395612829000000
 C    8.146052291000000    -2.480948025000000    5.488912747000000
 C    6.974788378000000    -2.606976994000000    4.563181346000000
 C    8.587197419000001    -1.260065016000000    6.020103132000000
 H    8.108346824000000    -0.318165704000000    5.779745256000001
 O    6.794395410000000    -3.670105317000000    3.973530622000000
 N    6.156179822000000    -1.492293523000000    4.435552133000000
 H    6.292066931000000    -0.660913686000000    4.991205752000000
 N    5.108241655000000    -1.529059631000000    3.564276830000000
 C    4.433922777000000    -0.431749110000000    3.441393739000000
 H    4.696991524000000    0.479792332000000    4.007405254000000




