%nproc=15
%mem=70GB
%chk=PMDA_Aldehyde_Hydrazone_freq.chk
#P B3LYP/6-311++G(d,p) EmpiricalDispersion=GD3 freq(noraman) SCF=YQC NoSymm

Restart from PMDA_Aldehyde_Hydrazone.log

0 1
 C   2.664060  -0.843226  -0.497624
 C   1.217963  -0.526127  -0.309373
 C   0.104672  -1.227345  -0.756821
 H   0.183314  -2.144429  -1.326838
 C  -1.117191  -0.661130  -0.413447
 C  -2.494873  -1.142214  -0.725963
 C  -1.218189   0.520984   0.320698
 C  -2.664280   0.838122   0.508905
 C  -0.104895   1.222200   0.768151
 H  -0.183544   2.139279   1.338176
 C   1.116967   0.655984   0.424782
 C   2.494647   1.137058   0.737317
 N  -3.374548  -0.197369  -0.145575
 N   3.374317   0.192259   0.156856
 O  -3.148165   1.773650   1.093191
 O  -2.813824  -2.127651  -1.341617
 O   2.813589   2.122513   1.352951
 O   3.147952  -1.778751  -1.081915
 C  -4.796766  -0.276672  -0.213663
 C   4.796539   0.271602   0.224861
 C  -5.546007   0.872633  -0.491612
 C  -6.927359   0.797250  -0.558569
 H  -5.045418   1.819196  -0.641477
 C  -7.586201  -0.427343  -0.359545
 H  -7.513742   1.682592  -0.769944
 C  -6.820758  -1.568237  -0.085758
 C  -5.434901  -1.499139  -0.007094
 H  -7.312320  -2.522736   0.070775
 H  -4.853630  -2.387200   0.197845
 C   5.434610   1.494113   0.018367
 C   6.820467   1.563253   0.096951
 H   4.853294   2.382173  -0.186455
 C   7.585975   0.422364   0.370585
 H   7.311988   2.517787  -0.059505
 C   6.927187  -0.802269   0.569535
 C   5.545830  -0.877698   0.502660
 H   7.513603  -1.687614   0.780809
 H   5.045292  -1.824298   0.652457
 H  -15.546118  -1.505657  -2.090150
 C  -15.223741  -0.568703  -1.650546
 C  -16.165865   0.344582  -1.180724
 H  -17.223134   0.112783  -1.242187
 C  -15.746587   1.562599  -0.643571
 H  -16.477743   2.278290  -0.285474
 C  -14.390957   1.864212  -0.571897
 H  -14.048141   2.812107  -0.175531
 C  -13.438153   0.942253  -1.019423
 C  -11.993804   1.342794  -0.921653
 C  -13.864331  -0.273531  -1.568490
 H  -13.145583  -0.977904  -1.972807
 O  -11.627825   2.497491  -0.969491
 N  -11.120008   0.273897  -0.752881
 H  -11.498803  -0.647205  -0.550754
 N  -9.782857   0.471400  -0.693686
 C  -9.042755  -0.539753  -0.432331
 H  -9.470926  -1.535507  -0.253882
 H   15.546005   1.500775   2.100603
 C   15.223628   0.563872   1.660890
 C   16.165749  -0.349299   1.190838
 H   17.223013  -0.117459   1.252230
 C   15.746475  -1.567254   0.653542
 H   16.477629  -2.282857   0.295265
 C   14.390853  -1.868921   0.581957
 H   14.048043  -2.816772   0.185482
 C   13.438051  -0.947073   1.029717
 C   11.993711  -1.347665   0.932038
 C   13.864224   0.268649   1.578924
 H   13.145481   0.972926   1.983414
 O   11.627786  -2.502384   0.979733
 N   11.119856  -0.278782   0.763491
 H   11.498590   0.642365   0.561453
 N   9.782708  -0.476331   0.704407
 C   9.042538   0.534817   0.443233
 H   9.470654   1.530616   0.264879






