%nproc=15
%mem=70GB
%chk=Pyrene_Aldehyde_Hydrazone.chk
#P B3LYP/6-311++G(d,p) EmpiricalDispersion=GD3 opt SCF=YQC NoSymm

Comment

0 1
 C    0.000149000000000    3.538221000000000    0.000000000000000
 C    -1.208314000000000    2.825814000000000    0.000000000000000
 C    -1.234523000000000    1.426499000000000    0.000000000000000
 C    0.000173000000000    0.711855000000000    0.000000000000000
 C    1.234878000000000    1.426489000000000    0.000000000000000
 C    1.208633000000000    2.825798000000000    0.000000000000000
 H    -2.147734000000000    3.368891000000000    0.000000000000000
 H    2.148055000000000    3.368886000000000    0.000000000000000
 C    0.000167000000000    -0.711882000000000    0.000000000000000
 C    -1.234536000000000    -1.426518000000000    0.000000000000000
 C    -1.208310000000000    -2.825825000000000    0.000000000000000
 C    0.000175000000000    -3.538236000000000    0.000000000000000
 C    1.208656000000000    -2.825835000000000    0.000000000000000
 C    1.234871000000000    -1.426526000000000    0.000000000000000
 H    -2.147732000000000    -3.368910000000000    0.000000000000000
 H    2.148078000000000    -3.368915000000000    0.000000000000000
 C    2.463326000000000    0.679235000000000    0.000000000000000
 C    2.463326000000000    -0.679271000000000    0.000000000000000
 H    3.399127000000000    1.228117000000000    0.000000000000000
 H    3.399123000000000    -1.228155000000000    0.000000000000000
 C    -2.462978000000000    0.679245000000000    0.000000000000000
 C    -2.462987000000000    -0.679261000000000    0.000000000000000
 H    -3.398774000000000    1.228133000000000    0.000000000000000
 H    -3.398787000000000    -1.228142000000000    0.000000000000000
 H    -0.448736324000000    11.770751607999999    -1.114146465000000
 C    0.461074620000000    11.326863424000001    -0.716677514000000
 C    1.479359494000000    12.149006794000000    -0.238128244000000
 H    1.363027949000000    13.229770412000001    -0.259718267000000
 C    2.651809277000000    11.585390377000000    0.257968083000000
 H    3.453784634000000    12.222698160000000    0.622178613000000
 C    2.801697182000000    10.197215529999999    0.282297802000000
 H    3.726717350000000    9.770436639000000    0.668035148000000
 C    1.781453998000000    9.355981020000000    -0.189890051000000
 C    2.024893576000000    7.878185995999999    -0.150139333000000
 C    0.610618509000000    9.935899374000000    -0.699955273000000
 H    -0.195793294000000    9.342156124000001    -1.113975890000000
 O    3.178753482000000    7.463041963000000    -0.232201377000000
 N    0.907555009000000    7.063993605000000    -0.017573501000000
 H    -0.017771644000000    7.441979501999999    0.121372286000000
 N    1.062107852000000    5.709546441000000    -0.032841129000000
 C    -0.027319184000000    5.013657206000000    0.019917649000000
 H    -1.021880442000000    5.491980994000000    0.070278930000000
 H    0.448736324000000    -11.770751607999999    1.114146465000000
 C    -0.461074620000000    -11.326863424000001    0.716677514000000
 C    -1.479359494000000    -12.149006794000000    0.238128244000000
 H    -1.363027949000000    -13.229770412000001    0.259718267000000
 C    -2.651809277000000    -11.585390377000000    -0.257968083000000
 H    -3.453784634000000    -12.222698160000000    -0.622178613000000
 C    -2.801697182000000    -10.197215529999999    -0.282297802000000
 H    -3.726717350000000    -9.770436639000000    -0.668035148000000
 C    -1.781453998000000    -9.355981020000000    0.189890051000000
 C    -2.024893576000000    -7.878185995999999    0.150139333000000
 C    -0.610618509000000    -9.935899374000000    0.699955273000000
 H    0.195793294000000    -9.342156124000001    1.113975890000000
 O    -3.178753482000000    -7.463041963000000    0.232201377000000
 N    -0.907555009000000    -7.063993605000000    0.017573501000000
 H    0.017771644000000    -7.441979501999999    -0.121372286000000
 N    -1.062107852000000    -5.709546441000000    0.032841129000000
 C    0.027319184000000    -5.013657206000000    -0.019917649000000
 H    1.021880442000000    -5.491980994000000    -0.070278930000000




