%nproc=15
%mem=70GB
%chk=Borazine_None_Borazine_freq_opt_freq.chk
#P B3LYP/6-311++G(d,p) EmpiricalDispersion=GD3 freq(noraman) SCF=(YQC,IntRep) NoSymm

Restart from Borazine_None_Borazine_freq_opt.log

0 1
 B   1.444490   0.000024  -0.000008
 N   0.714957  -1.237608  -0.000042
 N   0.714910   1.237627   0.000028
 H   2.630579   0.000047  -0.000003
 B  -0.721639   1.250575   0.000333
 B  -0.721591  -1.250611  -0.000349
 N  -1.428633  -0.000031  -0.000006
 H  -1.314636  -2.277791  -0.000533
 H  -1.314724   2.277733   0.000531
 C   1.432372  -2.480248   0.000195
 C   1.432279   2.480294  -0.000199
 C  -2.863518  -0.000058   0.000000
 C   1.149517  -3.458623   0.956858
 C   2.420968   2.725078   0.956361
 C  -3.569623   0.732692   0.957564
 C  -4.962580   0.735081   0.953338
 H  -3.022913   1.292692   1.707044
 C   3.119324   3.930332   0.951968
 H   2.633589   1.971256   1.705193
 C   1.843669  -4.666302   0.952725
 H   0.390297  -3.265502   1.705524
 C  -3.569605  -0.732827  -0.957563
 C   1.149398   3.458660  -0.956864
 C   2.421074  -2.725002  -0.956360
 C   2.832899  -4.907006   0.000469
 H   1.615018  -5.416539   1.701426
 C   3.119470  -3.930232  -0.951960
 H   2.633674  -1.971175  -1.705194
 C   2.832725   4.907098  -0.000460
 H   3.883348   4.107872   1.700590
 C   1.843510   4.666362  -0.952725
 H   0.390191   3.265513  -1.705536
 C  -4.962561  -0.735260  -0.953330
 H  -3.022882  -1.292806  -1.707048
 C  -5.665415  -0.000102   0.000007
 H  -5.498169   1.307075   1.702774
 H  -5.498137  -1.307270  -1.702764
 H  -6.749278  -0.000119   0.000009
 H   3.374663  -5.845756   0.000576
 H   3.883505  -4.107748  -1.700578
 H   1.614840   5.416592  -1.701427
 H   3.374458   5.845866  -0.000563






