42
	Energy:      86.9449063
B         -1.20468        1.20133       -0.00000
N         -2.54588        1.91988       -0.00000
N          0.15129        1.89204       -0.00000
H         -1.21680        0.06273       -0.00000
B          0.12635        3.42595        0.00000
B         -2.48921        3.45242        0.00000
N         -1.17340        4.25110        0.00000
H         -3.49392        4.02906        0.00000
H          1.14289        3.98251        0.00000
C         -3.79959        1.16200       -0.00000
C          1.38856        1.10747       -0.00000
C         -1.15964        5.71940        0.00000
C         -5.07195        1.79900       -0.00000
C          1.38341       -0.32433        0.00000
C          0.05471        6.46816        0.00000
C          0.06004        7.86801        0.00000
H          1.02890        6.02036        0.00000
C          2.55948       -1.07064        0.00000
H          0.50258       -0.93279        0.00000
C         -6.26245        1.06090       -0.00000
H         -5.19459        2.86554       -0.00000
C         -2.35996        6.49085        0.00000
C          2.67424        1.71696       -0.00000
C         -3.82504       -0.26944        0.00000
C         -6.23454       -0.32945        0.00000
H         -7.21630        1.57111       -0.00000
C         -5.01699       -0.99022        0.00000
H         -2.95725       -0.89640        0.00000
C          3.79092       -0.43627        0.00000
H          2.50801       -2.15323        0.00000
C          3.84869        0.95325       -0.00000
H          2.81917        2.78076       -0.00000
C         -2.33957        7.89033        0.00000
H         -3.34262        6.06215        0.00000
C         -1.13335        8.57749        0.00000
H          0.99995        8.40624        0.00000
H         -3.26958        8.44560        0.00000
H         -1.12353        9.66079       -0.00000
H         -7.15474       -0.89864        0.00000
H         -4.98890       -2.07362        0.00000
H          4.81341        1.44256       -0.00000
H          4.69857       -1.02532        0.00000
