%nproc=15
%mem=70GB
%chk=Borazine.chk
#P B3LYP/6-311++G(d,p) EmpiricalDispersion=GD3 opt SCF=YQC

Comment

0 1
 B    -1.204680000000000    1.201330000000000    -0.000000000000000
 N    -2.545880000000000    1.919880000000000    -0.000000000000000
 N    0.151290000000000    1.892040000000000    -0.000000000000000
 H    -1.216800000000000    0.062730000000000    -0.000000000000000
 B    0.126350000000000    3.425950000000000    0.000000000000000
 B    -2.489210000000000    3.452420000000000    0.000000000000000
 N    -1.173400000000000    4.251100000000000    0.000000000000000
 H    -3.493920000000000    4.029060000000000    0.000000000000000
 H    1.142890000000000    3.982510000000000    0.000000000000000
 C    -3.799590000000000    1.162000000000000    -0.000000000000000
 C    1.388560000000000    1.107470000000000    -0.000000000000000
 C    -1.159640000000000    5.719400000000000    0.000000000000000
 C    -5.071950000000000    1.799000000000000    -0.000000000000000
 C    1.383410000000000    -0.324330000000000    0.000000000000000
 C    0.054710000000000    6.468160000000000    0.000000000000000
 C    0.060040000000000    7.868010000000000    0.000000000000000
 H    1.028900000000000    6.020360000000000    0.000000000000000
 C    2.559480000000000    -1.070640000000000    0.000000000000000
 H    0.502580000000000    -0.932790000000000    0.000000000000000
 C    -6.262450000000000    1.060900000000000    -0.000000000000000
 H    -5.194590000000000    2.865540000000000    -0.000000000000000
 C    -2.359960000000000    6.490850000000000    0.000000000000000
 C    2.674240000000000    1.716960000000000    -0.000000000000000
 C    -3.825040000000000    -0.269440000000000    0.000000000000000
 C    -6.234540000000000    -0.329450000000000    0.000000000000000
 H    -7.216300000000000    1.571110000000000    -0.000000000000000
 C    -5.016990000000000    -0.990220000000000    0.000000000000000
 H    -2.957250000000000    -0.896400000000000    0.000000000000000
 C    3.790920000000000    -0.436270000000000    0.000000000000000
 H    2.508010000000000    -2.153230000000000    0.000000000000000
 C    3.848690000000000    0.953250000000000    -0.000000000000000
 H    2.819170000000000    2.780760000000000    -0.000000000000000
 C    -2.339570000000000    7.890330000000000    0.000000000000000
 H    -3.342620000000000    6.062150000000000    0.000000000000000
 C    -1.133350000000000    8.577489999999999    0.000000000000000
 H    0.999950000000000    8.406240000000000    0.000000000000000
 H    -3.269580000000000    8.445600000000001    0.000000000000000
 H    -1.123530000000000    9.660790000000000    -0.000000000000000
 H    -7.154740000000000    -0.898640000000000    0.000000000000000
 H    -4.988900000000000    -2.073620000000000    0.000000000000000
 H    4.813410000000000    1.442560000000000    -0.000000000000000
 H    4.698570000000000    -1.025320000000000    0.000000000000000




