%nproc=15
%mem=70GB
%chk=F_Nitrile_Triazine.chk
#P B3LYP/6-311++G(d,p) EmpiricalDispersion=GD3 opt SCF=YQC

Comment

0 1
 F    1.342850000000000    -2.363239000000000    -0.181050000000000
 C    0.684160000000000    -1.200169000000000    -0.092040000000000
 C    -0.709070000000000    -1.188689000000000    -0.034700000000000
 F    -1.391880000000000    -2.340709000000000    -0.068500000000000
 C    -1.404610000000000    0.011571000000000    0.057810000000000
 C    -0.684160000000000    1.200171000000000    0.092040000000000
 F    -1.342850000000000    2.363241000000000    0.181050000000000
 C    0.709070000000000    1.188691000000000    0.034700000000000
 F    1.391880000000000    2.340711000000000    0.068500000000000
 C    1.404610000000000    -0.011579000000000    -0.057810000000000
 C    -2.883159358000000    0.023754502000000    0.118663329000000
 N    -3.531642976000000    -1.153558270000000    0.082104847000000
 C    -4.857484114000000    -1.076574901000000    0.140205884000000
 N    -3.506946575000000    1.211634685000000    0.207589715000000
 C    -4.834115924000000    1.156584259000000    0.258683671000000
 N    -5.575695480000000    0.046021317000000    0.229485533000000
 H    -5.363992734000000    2.102374021000000    0.330839342000000
 H    -5.406985173000000    -2.013471293000000    0.112474611000000
 C    2.883159289000000    -0.023770922000000    -0.118663325000000
 N    3.531649587000000    1.153538188000000    -0.082105433000000
 C    4.857490288000000    1.076547266000000    -0.140206435000000
 N    3.506939765000000    -1.211654690000000    -0.207589119000000
 C    4.834109426000000    -1.156611821000000    -0.258683105000000
 N    5.575695284000000    -0.046053072000000    -0.229485524000000
 H    5.363980869000000    -2.102404625000000    -0.330838305000000
 H    5.406996664000000    2.013440554000000    -0.112475631000000




