%nproc=15
%mem=70GB
%chk=F_Nitrile_Triazine_freq_opt_freq.chk
#P B3LYP/6-311++G(d,p) EmpiricalDispersion=GD3 freq(noraman) SCF=YQC

Restart from F_Nitrile_Triazine_freq_opt.log

0 1
 F  -1.332058   2.325673  -0.446125
 C  -0.694248   1.176147  -0.198622
 C   0.694190   1.176179  -0.198648
 F   1.331937   2.325733  -0.446179
 C   1.417306   0.000023  -0.000017
 C   0.694248  -1.176163   0.198638
 F   1.332057  -2.325689   0.446140
 C  -0.694190  -1.176194   0.198663
 F  -1.331937  -2.325749   0.446194
 C  -1.417306  -0.000038   0.000032
 C   2.903922   0.000054  -0.000048
 N   3.519168   0.888277   0.787011
 C   4.850932   0.841026   0.740507
 N   3.519169  -0.888217  -0.787049
 C   4.850934  -0.841009  -0.740494
 N   5.575527   0.000008   0.000007
 H   5.390787  -1.547706  -1.363548
 H   5.390785   1.547727   1.363556
 C  -2.903922  -0.000069   0.000065
 N  -3.519169  -0.888274  -0.787014
 C  -4.850933  -0.841000  -0.740534
 N  -3.519168   0.888220   0.787047
 C  -4.850933   0.841035   0.740467
 N  -5.575527   0.000025  -0.000041
 H  -5.390785   1.547736   1.363518
 H  -5.390787  -1.547696  -1.363588






