%nproc=15
%mem=70GB
%chk=P_Aldehyde_Azine.chk
#P B3LYP/6-311++G(d,p) EmpiricalDispersion=GD3 opt SCF=YQC

Comment

0 1
 C    3.834450000000000    2.028850000000000    0.170710000000000
 C    4.206330000000000    0.766460000000000    -0.028510000000000
 C    3.061750000000000    -0.118750000000000    -0.027720000000000
 C    2.370940000000000    1.922770000000000    0.075610000000000
 N    1.928970000000000    0.690610000000000    -0.011520000000000
 C    1.610010000000000    3.228620000000000    0.050410000000000
 C    0.261520000000000    3.197680000000000    0.091160000000000
 N    -0.610890000000000    2.132640000000000    0.135180000000000
 C    -1.936010000000000    2.503710000000000    0.103780000000000
 C    -0.610970000000000    4.367110000000000    0.089560000000000
 C    -1.888450000000000    3.964100000000000    0.143740000000000
 C    -3.061790000000000    1.761380000000000    0.025080000000000
 C    -2.951580000000000    0.254180000000000    -0.012510000000000
 N    -1.879610000000000    -0.503420000000000    -0.000070000000000
 C    -3.782560000000000    -1.754340000000000    0.057960000000000
 C    -4.212200000000000    -0.502070000000000    -0.047320000000000
 C    -0.176010000000000    -3.028340000000000    -0.060020000000000
 N    0.671370000000000    -1.928970000000000    -0.029400000000000
 C    1.995920000000000    -2.349370000000000    -0.010440000000000
 C    1.965000000000000    -3.733700000000000    0.015910000000000
 C    0.639340000000000    -4.146480000000000    -0.126480000000000
 C    3.147630000000000    -1.476470000000000    -0.015980000000000
 C    -1.620780000000000    -2.974640000000000    -0.017310000000000
 C    -2.336100000000000    -1.819480000000000    0.013870000000000
 H    4.463900000000001    2.885230000000000    0.286010000000000
 H    5.237850000000000    0.476960000000000    -0.118110000000000
 C    2.358930000000000    4.521340000000000    -0.050440000000000
 H    -0.306820000000000    1.166360000000000    0.052270000000000
 H    -0.301730000000000    5.398590000000000    0.063860000000000
 H    -2.734880000000000    4.629900000000000    0.185090000000000
 C    -4.397420000000000    2.434930000000000    -0.006460000000000
 H    -4.450990000000000    -2.596530000000000    0.127720000000000
 H    -5.226140000000000    -0.160350000000000    -0.095230000000000
 H    0.368460000000000    -0.960990000000000    -0.016620000000000
 H    2.820260000000000    -4.392510000000000    0.077770000000000
 H    0.310690000000000    -5.174130000000000    -0.203890000000000
 C    4.531580000000000    -2.102480000000000    -0.035610000000000
 C    -2.374400000000000    -4.291369999999999    0.032450000000000
 C    -4.741190000000000    3.311750000000000    -1.050370000000000
 C    -5.977000000000000    3.965120000000000    -1.062590000000000
 H    -4.031900000000000    3.519110000000000    -1.850140000000000
 C    -6.911260000000000    3.708380000000000    -0.062580000000000
 H    -6.208570000000000    4.674480000000000    -1.853500000000000
 C    -6.599060000000000    2.823450000000000    0.966560000000000
 C    -5.340520000000000    2.215570000000000    1.011330000000000
 H    -7.333480000000000    2.610180000000000    1.739570000000000
 H    -5.112220000000000    1.548090000000000    1.840350000000000
 C    3.256720000000000    4.734290000000000    -1.112880000000000
 C    4.070410000000000    5.869650000000000    -1.151690000000000
 H    3.370520000000000    3.985610000000000    -1.895730000000000
 C    3.946060000000000    6.847820000000000    -0.169600000000000
 H    4.807020000000000    5.983140000000000    -1.943480000000000
 C    3.020070000000000    6.683940000000000    0.858240000000000
 C    2.251750000000000    5.517520000000001    0.933110000000000
 H    2.906760000000000    7.458130000000000    1.613260000000000
 H    1.565100000000000    5.396900000000000    1.768870000000000
 C    4.872220000000000    -3.027410000000000    -1.039010000000000
 C    6.122890000000000    -3.651820000000000    -1.053390000000000
 H    4.145120000000000    -3.295470000000000    -1.803690000000000
 C    7.080580000000000    -3.314800000000000    -0.101320000000000
 H    6.344820000000000    -4.401200000000000    -1.808820000000000
 C    6.772130000000000    -2.389760000000000    0.892460000000000
 C    5.494670000000000    -1.823420000000000    0.950700000000000
 H    7.522030000000000    -2.113930000000000    1.629310000000000
 H    5.266900000000000    -1.133430000000000    1.760630000000000
 C    -3.297960000000000    -4.666250000000000    -0.957890000000000
 C    -3.944920000000000    -5.905850000000000    -0.903880000000000
 H    -3.528960000000000    -3.989670000000000    -1.777670000000000
 C    -3.627980000000000    -6.818279999999999    0.100320000000000
 H    -4.684150000000000    -6.165690000000000    -1.657210000000000
 C    -2.689640000000000    -6.480600000000001    1.070970000000000
 C    -2.091670000000000    -5.217730000000000    1.053630000000000
 H    -2.411560000000000    -7.200630000000000    1.836380000000000
 H    -1.358000000000000    -4.974810000000000    1.820860000000000
 C    -8.290514997000001    4.255494666000000    -0.021281762000000
 N    -8.684786172000001    5.067397387000000    -0.951025852000000
 H    -8.944425698000000    4.023195486000000    0.839485492000000
 N    -9.972155874000000    5.526513587000000    -0.681199539000000
 C    -10.379751039000000    6.333432943000000    -1.608886181000000
 C    -11.721379940000000    6.947067691000000    -1.583055257000000
 H    -9.729211525000000    6.587746863000000    -2.465745301000000
 C    -12.092937828000000    7.796927834000000    -2.629147139000000
 C    -13.363610823000000    8.375786311000001    -2.633726134000000
 H    -11.405838054000000    8.011392710000001    -3.443256789000000
 C    -14.258162523999999    8.106770743000000    -1.596888621000000
 H    -13.658220800000000    9.035057739999999    -3.446516986999999
 C    -13.885272701000000    7.260694872000000    -0.551855338000000
 H    -15.248280146000001    8.556325835999999    -1.603422272000000
 C    -12.616209455000000    6.679291037000000    -0.542631590000000
 H    -14.583322204000000    7.051532041000000    0.254880916000000
 H    -12.332529541000000    6.018442932000000    0.272855147000000
 C    4.605446605000000    8.021507875999999    -0.149705138000000
 N    5.473210773000000    8.340847037000000    -1.057486890000000
 H    4.368522126000000    8.719252099000002    0.674614078000000
 N    5.980941015000000    9.615728603000001    -0.817067118000000
 C    6.844275068000000    9.948676634000000    -1.723519044000000
 C    7.518976003000000    11.260911111000000    -1.722012100000000
 H    7.103166362000000    9.253450772000001    -2.543104964000000
 C    8.428411625000001    11.551192424000002    -2.743427472000000
 C    9.066325042000001    12.792968916000000    -2.771096604000000
 H    8.644019827999999    10.823000313000000    -3.520682356000000
 C    8.796764835999999    13.739631461000000    -1.781757698000000
 H    9.772166921000000    13.024465765000000    -3.564985310000000
 C    7.891087284000000    13.447805873000000    -0.761183468000000
 H    9.292462884000001    14.707182159000000    -1.806343600000000
 C    7.250515494000000    12.207938049999999    -0.729049596000000
 H    7.681595891000000    14.186390856999999    0.008525023000000
 H    6.543503656000000    11.987530888000000    0.067045922000000
 C    8.353191355000000    -4.057952365000000    -0.068353210000000
 N    8.739662564000000    -4.903275183000000    -0.971198268000000
 H    9.025547178000000    -3.772042184000000    0.761511475000000
 N    10.044284169000001    -5.321529464000000    -0.718333686000000
 C    10.444014318000001    -6.161492682000000    -1.619739684000000
 C    11.799539660000001    -6.744174531000000    -1.605047678000000
 H    9.775641464000000    -6.469135457000000    -2.444796307000000
 C    12.160911405000000    -7.633275112000000    -2.621677587000000
 C    13.443876330000000    -8.184163634000001    -2.636869738000001
 H    11.456291389000000    -7.899933324000000    -3.404799439000000
 C    14.360823171000000    -7.848249759000000    -1.639877005000000
 H    13.730543920000001    -8.873797677000001    -3.426989606000000
 C    13.998177273000000    -6.963006216999999    -0.624092783000000
 H    15.360401143000001    -8.276149530000000    -1.654744359000000
 C    12.716893304999999    -6.409326149000000    -0.604425644000000
 H    14.713653983000000    -6.701747711000000    0.151589273000000
 H    12.441188263000001    -5.717756908000000    0.187995863000000
 C    -4.364655825999999    -8.241211862000000    0.171521494000000
 N    -5.221326726000000    -8.625102500000001    -0.721676585000000
 H    -4.103736415000000    -8.897819338000000    1.021974351000000
 N    -5.685117147000000    -9.906233294000000    -0.430958497000000
 C    -6.536895084000000    -10.303511545999999    -1.322305517000000
 C    -7.166367764000000    -11.636951083000000    -1.268583159000000
 H    -6.819680751000000    -9.649984287000001    -2.167893578000000
 C    -8.065719126999999    -11.997672055000001    -2.276389321000000
 C    -8.660843445999999    -13.260629436000000    -2.254625505000000
 H    -8.306358192999999    -11.308096515000001    -3.081034720000000
 C    -8.358743940000000    -14.158278359000001    -1.229644310000000
 H    -9.358647176000000    -13.546832671000001    -3.037709465000000
 C    -7.463201515000000    -13.796176203000002    -0.222732419000000
 H    -8.821104018000000    -15.142404605999999    -1.215713680000000
 C    -6.865353571000000    -12.534860266000001    -0.239965078000000
 H    -7.228323297000000    -14.496633413000000    0.574787174000000
 H    -6.166000887000000    -12.259605933000000    0.545753705000000




