%nproc=15
%mem=70GB
%chk=P_Aldehyde_Azine_freq.chk
#P B3LYP/6-311++G(d,p) EmpiricalDispersion=GD3 freq(noraman) SCF=YQC

Restart from P_Aldehyde_Azine.log

0 1
 C   4.027498  -1.553118  -0.630517
 C   4.310780  -0.230242  -0.631616
 C   3.027344   0.465469  -0.644126
 C   2.571720  -1.662130  -0.626962
 N   1.993685  -0.425762  -0.637688
 C   1.892918  -2.894940  -0.629372
 C   0.501679  -3.057025  -0.637343
 N  -0.440142  -2.055816  -0.637144
 C  -1.708873  -2.584747  -0.636750
 C  -0.219206  -4.295827  -0.631855
 C  -1.557219  -4.010000  -0.641481
 C  -2.912437  -1.868174  -0.644156
 C  -3.027421  -0.465435  -0.644270
 N  -1.993766   0.425797  -0.637712
 C  -4.027577   1.553157  -0.630672
 C  -4.310856   0.230283  -0.631858
 C  -0.501755   3.057065  -0.637228
 N   0.440057   2.055849  -0.637094
 C   1.708790   2.584780  -0.636654
 C   1.557147   4.010028  -0.641287
 C   0.219135   4.295862  -0.631620
 C   2.912349   1.868204  -0.644048
 C  -1.892996   2.894981  -0.629331
 C  -2.571805   1.662170  -0.626995
 H   4.722726  -2.377409  -0.631745
 H   5.282453   0.237112  -0.621940
 C   2.709169  -4.148222  -0.620184
 H  -0.228672  -1.065025  -0.637470
 H   0.240776  -5.270037  -0.621171
 H  -2.375012  -4.711437  -0.649643
 C  -4.169201  -2.678754  -0.653788
 H  -4.722808   2.377445  -0.631965
 H  -5.282539  -0.237052  -0.622255
 H   0.228591   1.065058  -0.637376
 H   2.374944   4.711462  -0.649389
 H  -0.240829   5.270079  -0.620879
 C   4.169114   2.678797  -0.653711
 C  -2.709237   4.148265  -0.620147
 C  -4.568690  -3.394678   0.485409
 C  -5.732387  -4.148791   0.483150
 H  -3.956333  -3.346617   1.378715
 C  -6.535536  -4.212770  -0.668204
 H  -6.039634  -4.693634   1.367050
 C  -6.135856  -3.498202  -1.806507
 C  -4.969172  -2.740925  -1.799163
 H  -6.743153  -3.539814  -2.704927
 H  -4.669789  -2.193734  -2.685481
 C   3.408095  -4.537305   0.533108
 C   4.165288  -5.698709   0.550862
 H   3.347725  -3.915970   1.419329
 C   4.248664  -6.510721  -0.593157
 H   4.698867  -5.996835   1.444688
 C   3.550946  -6.121605  -1.745320
 C   2.790087  -4.957054  -1.757967
 H   3.609159  -6.734715  -2.638865
 H   2.258591  -4.664413  -2.656131
 C   4.568697   3.394613   0.485512
 C   5.732417   4.148700   0.483222
 H   3.956405   3.346498   1.378859
 C   6.535477   4.212751  -0.668190
 H   6.039739   4.693471   1.367139
 C   6.135687   3.498295  -1.806526
 C   4.968983   2.741053  -1.799153
 H   6.742914   3.539983  -2.704990
 H   4.669509   2.193946  -2.685492
 C  -3.408387   4.537209   0.533055
 C  -4.165560   5.698626   0.550816
 H  -3.348213   3.915752   1.419204
 C  -4.248698   6.510806  -0.593105
 H  -4.699307   5.996634   1.444580
 C  -3.550765   6.121812  -1.745190
 C  -2.789922   4.957259  -1.757839
 H  -3.608806   6.735037  -2.638668
 H  -2.258265   4.664722  -2.655942
 C  -7.767950  -4.996217  -0.715093
 N  -8.190422  -5.673386   0.291025
 H  -8.338567  -4.994448  -1.648402
 N  -9.379522  -6.341184   0.026686
 C  -9.804032  -7.014177   1.034828
 C  -11.037180  -7.797764   0.991547
 H  -9.233961  -7.011937   1.968523
 C  -11.432597  -8.505893   2.136070
 C  -12.600925  -9.263515   2.133851
 H  -10.819187  -8.460266   3.030156
 C  -13.388722  -9.322179   0.985934
 H  -12.895479  -9.806108   3.024876
 C  -13.003265  -8.619914  -0.160146
 H  -14.298983  -9.911179   0.981116
 C  -11.839221  -7.863705  -0.161118
 H  -13.616406  -8.665592  -1.053225
 H  -11.531965  -7.316066  -1.043259
 C   5.035943  -7.741356  -0.618676
 N   5.696083  -8.156137   0.401820
 H   5.052191  -8.317534  -1.548441
 N   6.371343  -9.345105   0.156486
 C   7.031734  -9.759059   1.177275
 C   7.819731  -10.989957   1.154933
 H   7.014985  -9.181222   2.106029
 C   8.513649  -11.373463   2.312139
 C   9.274855  -12.539330   2.329940
 H   8.454189  -10.752666   3.200292
 C   9.351352  -13.336563   1.189616
 H   9.806403  -12.824596   3.230592
 C   8.663381  -12.962988   0.031000
 H   9.943214  -14.244915   1.200367
 C   7.903705  -11.801395   0.010043
 H   8.723039  -13.583411  -0.856208
 H   7.367183  -11.503218  -0.881989
 C   7.767908   4.996169  -0.715103
 N   8.190440   5.673299   0.291014
 H   8.338515   4.994375  -1.648421
 N   9.379576   6.341028   0.026664
 C   9.804128   7.014008   1.034798
 C   11.037321   7.797523   0.991503
 H   9.234069   7.011800   1.968499
 C   11.432798   8.505620   2.136025
 C   12.601171   9.263173   2.133795
 H   10.819400   8.460022   3.030121
 C   13.388954   9.321799   0.985866
 H   12.895771   9.805741   3.024820
 C   13.003437   8.619567  -0.160214
 H   14.299249   9.910746   0.981038
 C   11.839348   7.863427  -0.161174
 H   13.616566   8.665216  -1.053303
 H   11.532045   7.315813  -1.043314
 C  -5.035940   7.741449  -0.618607
 N  -5.696056   8.156256   0.401902
 H  -5.052241   8.317623  -1.548373
 N  -6.371309   9.345223   0.156544
 C  -7.031701   9.759208   1.177321
 C  -7.819686   10.990115   1.154948
 H  -7.014960   9.181395   2.106089
 C  -8.513625   11.373640   2.312136
 C  -9.274819   12.539514   2.329909
 H  -8.454189   10.752853   3.200297
 C  -9.351284   13.336737   1.189575
 H  -9.806384   12.824795   3.230546
 C  -8.663292   12.963143   0.030978
 H  -9.943137   14.245095   1.200305
 C  -7.903627   11.801543   0.010048
 H  -8.722924   13.583558  -0.856238
 H  -7.367090   11.503351  -0.881969






