%nproc=15
%mem=70GB
%chk=F_Aldehyde_Azine_freq.chk
#P B3LYP/6-311++G(d,p) EmpiricalDispersion=GD3 freq(noraman) SCF=YQC

Restart from F_Aldehyde_Azine.log

0 1
 F  -1.703151  -2.120677   0.000110
 C  -0.898104  -1.057175   0.000122
 C   0.467891  -1.283149   0.000117
 F   0.891312  -2.559984   0.000107
 C   1.417140  -0.247964   0.000117
 C   0.898104   1.057175   0.000122
 F   1.703151   2.120677   0.000110
 C  -0.467891   1.283149   0.000117
 F  -0.891312   2.559984   0.000108
 C  -1.417140   0.247964   0.000117
 C   2.833449  -0.594075   0.000098
 N   3.765418   0.291326   0.000152
 H   3.082802  -1.655176  -0.000003
 N   5.027709  -0.283896   0.000049
 C   5.962342   0.600418   0.000142
 C   7.377145   0.243258  -0.000023
 H   5.701526   1.662393   0.000220
 C   8.335126   1.268559  -0.000151
 C   9.694306   0.967840  -0.000298
 H   8.009365   2.303633  -0.000138
 C   10.110956  -0.362087  -0.000311
 H   10.425659   1.767799  -0.000400
 C   9.164001  -1.391101  -0.000184
 H   11.168904  -0.599191  -0.000414
 C   7.808129  -1.095269  -0.000044
 H   9.489864  -2.425083  -0.000191
 H   7.066213  -1.883909   0.000054
 C  -2.833449   0.594075   0.000098
 N  -3.765418  -0.291326   0.000152
 H  -3.082802   1.655176  -0.000003
 N  -5.027709   0.283896   0.000049
 C  -5.962342  -0.600418   0.000142
 C  -7.377145  -0.243258  -0.000023
 H  -5.701526  -1.662393   0.000220
 C  -8.335126  -1.268559  -0.000151
 C  -9.694306  -0.967840  -0.000298
 H  -8.009365  -2.303633  -0.000138
 C  -10.110956   0.362087  -0.000311
 H  -10.425659  -1.767799  -0.000400
 C  -9.164001   1.391101  -0.000184
 H  -11.168904   0.599191  -0.000414
 C  -7.808129   1.095269  -0.000044
 H  -9.489864   2.425083  -0.000192
 H  -7.066213   1.883909   0.000054






