%nproc=15
%mem=70GB
%chk=F_Aldehyde_Azine.chk
#P B3LYP/6-311++G(d,p) EmpiricalDispersion=GD3 opt SCF=YQC

Comment

0 1
 F    1.342850000000000    -2.363239000000000    -0.181050000000000
 C    0.684160000000000    -1.200169000000000    -0.092040000000000
 C    -0.709070000000000    -1.188689000000000    -0.034700000000000
 F    -1.391880000000000    -2.340709000000000    -0.068500000000000
 C    -1.404610000000000    0.011571000000000    0.057810000000000
 C    -0.684160000000000    1.200171000000000    0.092040000000000
 F    -1.342850000000000    2.363241000000000    0.181050000000000
 C    0.709070000000000    1.188691000000000    0.034700000000000
 F    1.391880000000000    2.340711000000000    0.068500000000000
 C    1.404610000000000    -0.011579000000000    -0.057810000000000
 C    -2.877803822000000    -0.017081397000000    0.121404671000000
 N    -3.595720165000000    1.060347982000000    0.174337847000000
 H    -3.355893407000000    -1.014028052000000    0.118227577000000
 N    -4.951145290000000    0.739852404000000    0.206275082000000
 C    -5.678992368000000    1.810391925000000    0.251429694000000
 C    -7.153497005000000    1.758130706000000    0.268393936000000
 H    -5.213181332000000    2.812712935000000    0.272817792000000
 C    -7.869077119000000    2.958694790000000    0.303275677000000
 C    -9.265170642999999    2.933578623000000    0.303395451000000
 H    -7.352489528000000    3.914443726000000    0.326877276000000
 C    -9.942476420000000    1.713849799000000    0.269592649000000
 H    -9.826079472000000    3.864632807000000    0.327524659000000
 C    -9.227307710000002    0.516142915000000    0.237691269000000
 H    -11.029747434000001    1.696223713000000    0.267055441000000
 C    -7.831509498000000    0.535742578000000    0.237218155000000
 H    -9.756198059000001    -0.433276067000000    0.210780740000000
 H    -7.279788600000000    -0.400757289000000    0.209197104000000
 C    2.878220935000000    0.016517355000000    -0.111164344000000
 N    3.593381468000000    -1.057304492000000    -0.231629753000000
 H    3.358802761000000    1.010195256000000    -0.046917043000000
 N    4.948312997000000    -0.736165911000000    -0.275734597000000
 C    5.672770812000000    -1.802265884000000    -0.403980038000000
 C    7.144010551000000    -1.745724318000000    -0.501137795000000
 H    5.205879982000000    -2.803173460000000    -0.451747787000000
 C    7.854844654000000    -2.940067705000000    -0.652414052000000
 C    9.246448730999999    -2.909062539000000    -0.762798541000000
 H    7.337726487000000    -3.895123951000000    -0.688912976000000
 C    9.924073580000000    -1.689747541000000    -0.721329901000000
 H    9.803420386000001    -3.834955514000000    -0.883494857000000
 C    9.213878727999999    -0.498560647000000    -0.567437672000000
 H    11.007626592999999    -1.667244024000000    -0.810109601000000
 C    7.822564291000000    -0.524041822000000    -0.456839897000000
 H    9.742963322000000    0.450607290000000    -0.535889268000000
 H    7.274458381000000    0.407720007000000    -0.340165409000000




