%nproc=15
%mem=70GB
%chk=T-brick_BoronicAcid_Borosilicate_freq.chk
#P B3LYP/6-311++G(d,p) EmpiricalDispersion=GD3 freq(noraman) SCF=YQC

Restart from T-brick_BoronicAcid_Borosilicate.log

0 1
 N   1.127471  -0.425737  -0.055934
 C   0.737445  -1.750037  -0.066021
 C  -0.677086  -1.708872  -0.058978
 N  -1.106257  -0.396376  -0.041696
 C  -1.427132  -2.905286  -0.024328
 C  -2.905511  -2.921254  -0.017981
 C  -0.681868  -4.089304   0.010577
 H  -1.206267  -5.037230   0.002197
 C   0.719001  -4.106761   0.012762
 H   1.231032  -5.062178   0.010935
 C   1.481882  -2.936199  -0.031167
 C   2.959707  -2.944178  -0.034257
 C  -3.604896  -3.892501   0.718700
 C   3.674752  -3.789190   0.828733
 C   3.685601  -2.109672  -0.901617
 C  -3.648128  -1.981602  -0.752379
 C  -5.035989  -2.026480  -0.757062
 H  -3.128733  -1.217510  -1.314212
 C   5.075254  -2.117723  -0.897794
 H   3.152944  -1.485055  -1.610851
 C  -5.740438  -2.999580  -0.029335
 H  -5.591605  -1.296389  -1.335233
 C  -4.992912  -3.930281   0.710181
 H  -3.054119  -4.605869   1.321063
 C   5.064083  -3.793769   0.826257
 H   3.130524  -4.427344   1.515654
 C   5.795200  -2.956437  -0.032018
 H   5.618233  -1.475817  -1.582789
 H   5.599340  -4.448259   1.505223
 H  -5.512972  -4.683970   1.291130
 C  -0.018719   0.344558  -0.033915
 H   2.075262  -0.100508   0.042935
 C  -0.002414   1.807830  -0.013076
 C  -1.206483   2.499638   0.194553
 C  -1.218776   3.886297   0.218972
 H  -2.115392   1.928596   0.335758
 C   1.179503   2.541592  -0.197533
 C  -0.040708   4.632122   0.040161
 H  -2.153849   4.410342   0.381290
 C   1.156445   3.930215  -0.168627
 H   2.122083   2.037306  -0.381561
 H   2.075991   4.485466  -0.314763
 B  -7.289501  -3.039330  -0.035502
 O  -7.991722  -2.095320  -0.754228
 O  -7.949524  -4.017858   0.677656
Si  -9.552244  -1.686560  -1.081535
Si  -9.493521  -4.495311   0.991810
 O  -10.309280  -2.944239  -1.845539
 O  -10.347723  -1.344315   0.328656
 H  -9.580259  -0.513717  -1.945085
 O  -10.311960  -3.272917   1.749570
 O  -10.261384  -4.872496  -0.424627
 H  -9.476030  -5.668493   1.855273
 B  -10.603106  -4.256431  -1.596886
 H  -11.177089  -4.883445  -2.428178
 B  -10.666344  -1.976009   1.498987
 H  -11.274158  -1.377236   2.327045
 B   7.347793  -2.962042  -0.028065
 O   8.018660  -3.798761   0.834875
 O   8.028987  -2.129257  -0.887639
Si   9.570210  -4.186959   1.235915
Si   9.588219  -1.761711  -1.279241
 O   10.353370  -4.782290  -0.093410
 O   10.355904  -2.836787   1.779330
 H   9.562736  -5.196785   2.285357
 O   10.370156  -1.174780   0.054689
 O   10.360656  -3.120674  -1.818164
 H   9.599086  -0.751344  -2.328353
 B   10.684757  -4.365867  -1.353434
 H   11.274049  -5.110267  -2.068354
 B   10.693280  -1.595033   1.315836
 H   11.286765  -0.855817   2.032828
 B  -0.062224   6.185631   0.067586
 O   1.113190   6.880171  -0.110365
 O  -1.255478   6.840484   0.268232
Si   1.625847   8.446941  -0.168032
Si  -1.825969   8.384140   0.375050
 O   0.861125   9.235046  -1.404308
 O   1.278078   9.197355   1.263650
 H   3.064663   8.477506  -0.392654
 O  -1.087724   9.160578   1.635008
 O  -1.504517   9.190873  -1.032451
 H  -3.264560   8.356849   0.599630
 B  -0.416510   9.548861  -1.779778
 H  -0.586136   10.153019  -2.789159
 B   0.179602   9.500217   2.020907
 H   0.332230   10.078140   3.048191






