%nproc=15
%mem=70GB
%chk=Triazine-TrisPhenyl_AmineBorane_Borazine_freq.chk
#P B3LYP/6-311++G(d,p) EmpiricalDispersion=GD3 freq(noraman) SCF=YQC

Restart from Triazine-TrisPhenyl_AmineBorane_Borazine.log

0 1
 C   5.496865  -1.105545   0.000589
 C   4.561460  -2.146256   0.019808
 C   3.200689  -1.872576   0.016133
 C   2.736429  -0.550396   0.000844
 C   3.675725   0.489509  -0.014466
 C   5.036509   0.215870  -0.018386
 C   1.285799  -0.258636   0.000696
 N   0.903272   1.025494   0.001062
 C  -0.418889   1.242778   0.000622
 N  -1.339714   0.269433   0.000096
 C  -0.866807  -0.984226  -0.000043
 N   0.436547  -1.295016   0.000132
 C  -0.891539   2.644933   0.000684
 C  -2.261745   2.938448  -0.016965
 C  -2.705142   4.253738  -0.021007
 C  -1.790980   5.313129   0.000377
 C  -0.422031   5.023376   0.021974
 C   0.021336   3.708074   0.018244
 C  -1.844790  -2.094629  -0.000417
 C  -3.221948  -1.835613   0.016264
 C  -4.139345  -2.877236   0.020015
 C  -3.705780  -4.207663  -0.000632
 C  -2.331235  -4.469663  -0.021266
 C  -1.413864  -3.428015  -0.017307
 H   2.481681  -2.680798   0.035207
 H   4.908664  -3.171924   0.049747
 H   5.753208   1.027583  -0.048494
 H   3.325030   1.512844  -0.033495
 H  -2.972606   2.123093  -0.037795
 H  -3.766394   4.468567  -0.053038
 H   0.292578   5.836861   0.053789
 H   1.080741   3.489474   0.039109
 H  -3.562355  -0.808834   0.036550
 H  -5.201163  -2.665098   0.051281
 H  -1.986653  -5.496175  -0.052482
 H  -0.352300  -3.635951  -0.037459
 N   6.897414  -1.387258   0.000114
 B   7.766523  -0.715652   0.937280
 B   7.438471  -2.342420  -0.937775
 H   7.325387   0.059459   1.723399
 N   9.161004  -1.019148   0.906241
 H   6.731250  -2.886494  -1.723393
 N   8.841910  -2.601459  -0.908240
 B   9.741087  -1.959036  -0.001365
 H   9.760790  -0.554051   1.570958
 H   9.214661  -3.262023  -1.573536
 H   10.908726  -2.193715  -0.002044
 N  -2.247305   6.666895  -0.000001
 B  -3.266032   7.082814   0.934840
 B  -1.688004   7.614075  -0.935291
 H  -3.718842   6.312424   1.718955
 N  -3.700394   8.442231   0.903987
 H  -0.861172   7.274470  -1.719120
 N  -2.165550   8.958953  -0.905722
 B  -3.174052   9.415474  -0.001215
 H  -4.404874   8.728416   1.567095
 H  -1.778036   9.612739  -1.569274
 H  -3.554627   10.544020  -0.001754
 N  -4.649984  -5.279761  -0.000415
 B  -4.501249  -6.368862   0.935764
 B  -5.749525  -5.270001  -0.936174
 H  -3.607852  -6.375030   1.720099
 N  -5.461621  -7.424526   0.906040
 H  -5.868608  -4.384915  -1.720914
 N  -6.675860  -6.355632  -0.905303
 B  -6.567502  -7.456120   0.000695
 H  -5.357577  -8.176898   1.570130
 H  -7.435716  -6.347529  -1.568974
 H  -7.354847  -8.349731   0.001167






