%nproc=15
%mem=70GB
%chk=Triazine-TrisPhenyl_AmineBorane_Borazine.chk
#P B3LYP/6-311++G(d,p) EmpiricalDispersion=GD3 opt SCF=YQC

Comment

0 1
 C    4.027462051000000    -3.893913718000000    0.310066179000000
 C    2.672148051000000    -4.262318718000000    0.319743179000000
 C    1.678672051000000    -3.300991718000001    0.229140179000000
 C    2.003629051000000    -1.937063718000000    0.160580179000000
 C    3.355470051000000    -1.566913718000000    0.187692179000000
 C    4.354395051000000    -2.527048718000000    0.261396179000000
 C    0.941359051000000    -0.909939718000000    0.077892179000000
 N    1.312939051000000    0.376982282000000    0.037767179000000
 C    0.318010051000000    1.271410282000000    -0.038992821000000
 N    -0.981642949000000    0.947974282000000    -0.075637821000000
 C    -1.260558949000000    -0.362144718000000    -0.031325821000000
 N    -0.332144949000000    -1.325265718000000    0.045418179000000
 C    0.676958051000000    2.706621282000000    -0.083768821000000
 C    -0.317350949000000    3.691753282000000    -0.190296821000000
 C    0.018704051000000    5.034651282000000    -0.245812821000000
 C    1.360665051000000    5.440586282000000    -0.161808821000000
 C    2.359252051000000    4.454275282000000    -0.075031821000000
 C    2.018771051000000    3.109724282000000    -0.036659821000000
 C    -2.682392949000000    -0.770638718000000    -0.066681821000000
 C    -3.700649949000000    0.190456282000000    -0.135975821000000
 C    -5.035099948999999    -0.188277718000000    -0.165449821000000
 C    -5.391426949000000    -1.548090718000000    -0.125807821000000
 C    -4.369830949000000    -2.511469718000000    -0.093439821000000
 C    -3.039347949000000    -2.128166718000000    -0.047251821000000
 H    0.636350051000000    -3.590416718000000    0.220005179000000
 H    2.423007051000000    -5.314639718000000    0.386235179000000
 H    5.392662051000000    -2.220384718000000    0.316972179000000
 H    3.609547051000000    -0.515584718000000    0.158735179000000
 H    -1.353435949000000    3.384405282000000    -0.238761821000000
 H    -0.746394949000000    5.795773282000000    -0.341783821000000
 H    3.403496051000000    4.745260282000000    -0.073396821000000
 H    2.789534051000000    2.352613282000000    0.021499179000000
 H    -3.429036949000000    1.237058282000000    -0.175087821000000
 H    -5.807122949000000    0.567416282000000    -0.254919821000000
 H    -4.647001949000000    -3.558870718000000    -0.092107821000000
 H    -2.256291949000000    -2.873402718000000    -0.005591821000000
 N    5.077418967000000    -4.900894524000000    0.407303043000000
 B    6.553644036000000    -4.522762961000000    0.609655730000000
 B    4.775634195000000    -6.405303985000000    0.313199555000000
 H    6.908917805000000    -3.408398482000000    0.710126863000000
 N    7.664156430000000    -5.564340816000000    0.710813635000000
 H    3.689897313000000    -6.819285994000000    0.146130799000000
 N    5.862995960000000    -7.471178786000000    0.412859810000000
 B    7.302783706000000    -7.034717857000000    0.610721356000000
 H    8.656896527000001    -5.271102867000000    0.850717654000000
 H    5.621787360000000    -8.484976015000001    0.341314215000000
 H    8.153668114000000    -7.850527566000000    0.687987076000000
 N    1.707402041000000    6.856558937000000    -0.187688853000000
 B    0.636494857000000    7.958988394000000    -0.156421639000000
 B    3.166105720000000    7.337883166000000    -0.248416993000000
 H    -0.511050074000000    7.718945743000000    -0.096070599000000
 N    0.982975904000000    9.444742097000001    -0.185437937000000
 H    4.072521416000000    6.593019195000000    -0.289719544000000
 N    3.545204390000000    8.815680337000000    -0.276284225000000
 B    2.442061784000000    9.857191740999999    -0.245196117000000
 H    0.228834659000000    10.167062340999999    -0.160558693000000
 H    4.547417886000000    9.106645822000001    -0.320920303000000
 H    2.722929766000000    11.004417432000000    -0.267693670000000
 N    -6.791221490000000    -1.955764364000000    -0.141692320000000
 B    -7.214818633000000    -3.424048671000000    0.025272342000000
 B    -7.933259051000000    -0.943532435000000    -0.326932909000000
 H    -6.436846876000000    -4.288046313000000    0.187722668000000
 N    -8.674925497000000    -3.866946835000000    0.008411447000000
 H    -7.737624540000000    0.204176284000000    -0.477297414000000
 N    -9.402724826000000    -1.354243108000000    -0.346010160000000
 B    -9.757453320000000    -2.820044562000000    -0.177992664000000
 H    -8.926447300000001    -4.873784391000000    0.127194647000000
 H    -10.152856955000001    -0.639311322000000    -0.477385634000000
 H    -10.891509210000001    -3.150544243000000    -0.192378405000000




