%nproc=15
%mem=70GB
%chk=P_PrimaryAmine_Ketoenamine.chk
#P B3LYP/6-311++G(d,p) EmpiricalDispersion=GD3 opt SCF=YQC NoSymm

Comment

0 1
 C    3.834450000000000    2.028850000000000    0.170710000000000
 C    4.206330000000000    0.766460000000000    -0.028510000000000
 C    3.061750000000000    -0.118750000000000    -0.027720000000000
 C    2.370940000000000    1.922770000000000    0.075610000000000
 N    1.928970000000000    0.690610000000000    -0.011520000000000
 C    1.610010000000000    3.228620000000000    0.050410000000000
 C    0.261520000000000    3.197680000000000    0.091160000000000
 N    -0.610890000000000    2.132640000000000    0.135180000000000
 C    -1.936010000000000    2.503710000000000    0.103780000000000
 C    -0.610970000000000    4.367110000000000    0.089560000000000
 C    -1.888450000000000    3.964100000000000    0.143740000000000
 C    -3.061790000000000    1.761380000000000    0.025080000000000
 C    -2.951580000000000    0.254180000000000    -0.012510000000000
 N    -1.879610000000000    -0.503420000000000    -0.000070000000000
 C    -3.782560000000000    -1.754340000000000    0.057960000000000
 C    -4.212200000000000    -0.502070000000000    -0.047320000000000
 C    -0.176010000000000    -3.028340000000000    -0.060020000000000
 N    0.671370000000000    -1.928970000000000    -0.029400000000000
 C    1.995920000000000    -2.349370000000000    -0.010440000000000
 C    1.965000000000000    -3.733700000000000    0.015910000000000
 C    0.639340000000000    -4.146480000000000    -0.126480000000000
 C    3.147630000000000    -1.476470000000000    -0.015980000000000
 C    -1.620780000000000    -2.974640000000000    -0.017310000000000
 C    -2.336100000000000    -1.819480000000000    0.013870000000000
 H    4.463900000000001    2.885230000000000    0.286010000000000
 H    5.237850000000000    0.476960000000000    -0.118110000000000
 C    2.358930000000000    4.521340000000000    -0.050440000000000
 H    -0.306820000000000    1.166360000000000    0.052270000000000
 H    -0.301730000000000    5.398590000000000    0.063860000000000
 H    -2.734880000000000    4.629900000000000    0.185090000000000
 C    -4.397420000000000    2.434930000000000    -0.006460000000000
 H    -4.450990000000000    -2.596530000000000    0.127720000000000
 H    -5.226140000000000    -0.160350000000000    -0.095230000000000
 H    0.368460000000000    -0.960990000000000    -0.016620000000000
 H    2.820260000000000    -4.392510000000000    0.077770000000000
 H    0.310690000000000    -5.174130000000000    -0.203890000000000
 C    4.531580000000000    -2.102480000000000    -0.035610000000000
 C    -2.374400000000000    -4.291369999999999    0.032450000000000
 C    -4.741190000000000    3.311750000000000    -1.050370000000000
 C    -5.977000000000000    3.965120000000000    -1.062590000000000
 H    -4.031900000000000    3.519110000000000    -1.850140000000000
 C    -6.911260000000000    3.708380000000000    -0.062580000000000
 H    -6.208570000000000    4.674480000000000    -1.853500000000000
 C    -6.599060000000000    2.823450000000000    0.966560000000000
 C    -5.340520000000000    2.215570000000000    1.011330000000000
 H    -7.333480000000000    2.610180000000000    1.739570000000000
 H    -5.112220000000000    1.548090000000000    1.840350000000000
 C    3.256720000000000    4.734290000000000    -1.112880000000000
 C    4.070410000000000    5.869650000000000    -1.151690000000000
 H    3.370520000000000    3.985610000000000    -1.895730000000000
 C    3.946060000000000    6.847820000000000    -0.169600000000000
 H    4.807020000000000    5.983140000000000    -1.943480000000000
 C    3.020070000000000    6.683940000000000    0.858240000000000
 C    2.251750000000000    5.517520000000001    0.933110000000000
 H    2.906760000000000    7.458130000000000    1.613260000000000
 H    1.565100000000000    5.396900000000000    1.768870000000000
 C    4.872220000000000    -3.027410000000000    -1.039010000000000
 C    6.122890000000000    -3.651820000000000    -1.053390000000000
 H    4.145120000000000    -3.295470000000000    -1.803690000000000
 C    7.080580000000000    -3.314800000000000    -0.101320000000000
 H    6.344820000000000    -4.401200000000000    -1.808820000000000
 C    6.772130000000000    -2.389760000000000    0.892460000000000
 C    5.494670000000000    -1.823420000000000    0.950700000000000
 H    7.522030000000000    -2.113930000000000    1.629310000000000
 H    5.266900000000000    -1.133430000000000    1.760630000000000
 C    -3.297960000000000    -4.666250000000000    -0.957890000000000
 C    -3.944920000000000    -5.905850000000000    -0.903880000000000
 H    -3.528960000000000    -3.989670000000000    -1.777670000000000
 C    -3.627980000000000    -6.818279999999999    0.100320000000000
 H    -4.684150000000000    -6.165690000000000    -1.657210000000000
 C    -2.689640000000000    -6.480600000000001    1.070970000000000
 C    -2.091670000000000    -5.217730000000000    1.053630000000000
 H    -2.411560000000000    -7.200630000000000    1.836380000000000
 H    -1.358000000000000    -4.974810000000000    1.820860000000000
 H    -12.965045549999999    5.007987459000000    2.033288325000000
 C    -13.216718246999999    5.770225093000000    1.297365463000000
 C    -14.465590627999999    6.393781357000000    1.370854799000000
 H    -15.165928926999998    6.114766729000000    2.154379314999999
 C    -14.811169976000000    7.371696697000000    0.442428976000000
 H    -15.782477053999999    7.857277221000000    0.497777037000000
 C    -13.907205896000001    7.730541642000000    -0.554067180000000
 H    -14.175258333000000    8.498847111000000    -1.275965690000000
 C    -12.654245838000000    7.111177234000000    -0.626914375000000
 H    -11.985083471999999    7.443919509000000    -1.411803612000000
 C    -12.296433856000000    6.116300440000000    0.294400385000000
 C    -10.979722475000001    5.400422615000000    0.285688782000000
 O    -10.689302073000000    4.640344754000000    1.207204241000000
 C    -10.042407473999999    5.611283983000000    -0.854596385000000
 C    -8.828803754999999    5.044175548000000    -0.912738150000000
 H    -10.344949459000002    6.235167900000000    -1.681599942000000
 N    -8.236806306000000    4.204886426000000    -0.007890504000000
 H    -8.222016921000000    5.257870958000000    -1.786739826000000
 H    -8.824156287999999    3.983154508000000    0.801252819000000
 H    5.491362823000000    12.735384594999999    1.756405635000000
 C    6.294725493000000    12.922408507000000    1.045379410000000
 C    6.972955428000000    14.143512726000001    1.098426190000000
 H    6.694829453000000    14.886635848999999    1.841828860000000
 C    8.004046856000000    14.406738488000000    0.201051868000000
 H    8.532224024000000    15.356348730000001    0.240530475000000
 C    8.361127121000001    13.448202731000000    -0.743738178000000
 H    9.170733086000000    13.651861106000000    -1.441122082000000
 C    7.686860792000000    12.222853069999999    -0.795805602000000
 H    8.020136984000001    11.508345900000000    -1.539413894000000
 C    6.638561093000000    11.947905372999999    0.094195320000000
 C    5.862282060000000    10.665886224999999    0.104372754000000
 O    5.051488511000000    10.447516045000000    1.002248798000000
 C    6.076107312000000    9.675048157999999    -0.989149482000000
 C    5.455237229000000    8.487190074000001    -1.025754679000000
 H    6.747600739000000    9.915505884000000    -1.799071908000000
 N    4.551842719000000    7.970739888000000    -0.136499915000000
 H    5.676373796000000    7.836800893999999    -1.865890056000000
 H    4.324478152000000    8.599498140000000    0.639274779000000
 H    13.099631561000001    -4.613568516000000    1.881348206000000
 C    13.347908699000000    -5.403407323000000    1.173929705000000
 C    14.612305313999999    -5.995796361000000    1.239364771000000
 H    15.327817240000000    -5.665800882000000    1.988617219000000
 C    14.953955513000000    -7.007905597000000    0.346824551000000
 H    15.937299700000001    -7.469328699000000    0.395938951000000
 C    14.030793536999999    -7.431869748000000    -0.605515571000000
 H    14.295972805000000    -8.226766489999999    -1.299130728000000
 C    12.762425976999998    -6.843725647000000    -0.669999215000000
 H    12.079261510000000    -7.226768946000000    -1.419072609000000
 C    12.407962883999998    -5.815269887000000    0.215023273000000
 C    11.075478472000000    -5.129148769000000    0.212037420000000
 O    10.793745272000001    -4.333722133000000    1.106003849000000
 C    10.111556947000000    -5.412690313000000    -0.889657492000000
 C    8.884129876999999    -4.875204673000000    -0.938220881000000
 H    10.404941447000001    -6.067468878000000    -1.695813955000000
 N    8.298735436999999    -4.007950194000000    -0.055724711000000
 H    8.258068908000000    -5.142130060000000    -1.783521668000000
 H    8.903365229000000    -3.736417140000000    0.725012490000000
 H    -5.088320389000000    -12.904733999999999    2.261165101000000
 C    -5.885077860000000    -13.146623721999999    1.559314184000000
 C    -6.521172642000000    -14.387167778000000    1.660996004000000
 H    -6.217554254000000    -15.090839662000000    2.432290576000000
 C    -7.542988891000000    -14.720188590999999    0.776288876000000
 H    -8.038399217000000    -15.685010932000001    0.853591858000000
 C    -7.932947116000000    -13.811933516000000    -0.204491755000000
 H    -8.735371036000000    -14.070116938000000    -0.892052686000000
 C    -7.300958327000000    -12.567246822000000    -0.305353525000000
 H    -7.658717111000000    -11.894042560999999    -1.075646638000000
 C    -6.262346977000000    -12.222219818999999    0.571500492000000
 C    -5.530319003000000    -10.915033374000000    0.530458348000000
 O    -4.727139289000000    -10.634306312000000    1.417784538000000
 C    -5.778262575000000    -9.975425119000001    -0.600440632000000
 C    -5.198352400000000    -8.769399493000000    -0.684302472000000
 H    -6.441437474000000    -10.270029686999999    -1.399255303000000
 N    -4.312813064000000    -8.188168249000000    0.182650119000000
 H    -5.441880830000000    -8.160160911000000    -1.548742854000000
 H    -4.063822280000000    -8.778099850000000    0.981926203000000




