%nproc=15
%mem=70GB
%chk=ETTA_Aldehyde_Benzobisoxazole.chk
#P B3LYP/6-311++G(d,p) EmpiricalDispersion=GD3 opt SCF=YQC

Comment

0 1
 C    -0.673043696000000    -0.061281087000000    0.099838696000000
 C    0.676216304000000    0.084438913000000    -0.077921304000000
 C    -1.445563696000000    0.859668913000000    0.987758696000000
 C    -1.208593696000000    0.910808913000000    2.368608696000000
 H    -0.435593696000000    0.291168913000000    2.815748696000000
 C    -1.956453696000000    1.762468913000000    3.184708696000000
 H    -1.756043696000000    1.803278913000000    4.251888696000000
 C    -2.958213696000000    2.558248913000000    2.631708696000000
 C    -3.215433696000000    2.502618913000000    1.263248696000000
 H    -4.001643696000000    3.116068913000000    0.831638696000000
 C    -2.465153696000000    1.655188913000000    0.445338696000000
 H    -2.681203696000000    1.618718913000000    -0.619611304000000
 C    1.423956304000000    1.217358913000000    0.545288696000000
 C    1.186576304000000    2.544388913000000    0.160958696000000
 H    0.432056304000000    2.771628913000000    -0.587751304000000
 C    1.910456304000000    3.588888913000000    0.739918696000000
 H    1.711366304000000    4.615018913000000    0.443058696000000
 C    2.886286304000000    3.315958913000000    1.697168696000000
 C    3.142086304000000    1.999178913000000    2.075248696000000
 H    3.907026304000000    1.784298913000000    2.816488696000000
 C    2.417466304000000    0.953908913000000    1.499138696000000
 H    2.631376304000000    -0.068851087000000    1.799648696000000
 C    -1.412513696000000    -1.154241087000000    -0.600071304000000
 C    -1.922953696000000    -2.232601087000000    0.134698696000000
 H    -1.770443696000000    -2.283151087000000    1.209878696000000
 C    -2.626883696000000    -3.253351087000000    -0.507091304000000
 H    -3.013833696000000    -4.089711087000000    0.068518696000000
 C    -2.834543696000000    -3.198741087000000    -1.884751304000000
 C    -2.343603696000000    -2.122491087000001    -2.622201304000000
 H    -2.507323696000000    -2.077791087000000    -3.695421304000000
 C    -1.638713696000000    -1.101381087000000    -1.982691304000000
 H    -1.261323696000000    -0.266561087000000    -2.567421304000000
 C    1.439886304000000    -0.894691087000000    -0.907871304000000
 C    1.681336304000000    -2.196721087000000    -0.447761304000000
 H    1.299246304000000    -2.515401087000000    0.518518696000000
 C    2.406656304000000    -3.098111087000000    -1.228831304000000
 H    2.581246304000000    -4.108341087000000    -0.868861304000000
 C    2.903116304000000    -2.703191087000000    -2.470121304000000
 C    2.679966304000000    -1.406181087000000    -2.930431304000000
 H    3.069876304000000    -1.097111087000000    -3.896341304000000
 C    1.955636304000000    -0.502771087000000    -2.150401304000000
 H    1.790596304000000    0.507088913000000    -2.517471304000000
 H    -7.721607858000000    6.717895340000000    5.453145174000000
 C    -6.877573565000000    6.036645407000000    5.359409606000000
 C    -6.166956551000000    5.661658591000000    6.507340852000000
 H    -6.466313572000000    6.055180166000000    7.476911850000000
 C    -5.072705698000000    4.786163700000000    6.429621614000000
 H    -4.519775336000000    4.493998806000000    7.315231850000000
 C    -4.707265740000000    4.296813308000000    5.169150718000000
 N    -3.701241991000000    3.446865473000000    4.787515422000000
 C    -5.435109999000000    4.692532506000000    4.059763188000000
 O    -4.887695081000000    4.091724538000000    2.965086921000000
 C    -6.524469089000000    5.554296046000000    4.092862598000000
 H    -7.060470684000000    5.833028117000000    3.194701765000000
 C    -3.844207805000000    3.357475880000000    3.475565996999999
 H    6.703742900000000    8.865843306000000    3.303062373000000
 C    6.317127247000000    7.848101617000000    3.306513016000000
 C    6.889781418000000    6.898859811000000    4.163452331000000
 H    7.712636640000001    7.189457099000000    4.813840122000000
 C    6.421095450000000    5.576343207000000    4.198090606000000
 H    6.861757801000000    4.838629275000000    4.859144800000000
 C    5.362972157000000    5.228702586000000    3.348786100000000
 N    4.708925472000000    4.038127261000000    3.161986916000000
 C    4.825709554000000    6.196299162000000    2.516802084000000
 O    3.824446308000000    5.617238322000000    1.794922667000000
 C    5.257871277000000    7.515233415000000    2.452896855000000
 H    4.803133006000000    8.234079113000000    1.783452215000000
 C    3.810047258000000    4.314332405000000    2.231734427000000
 H    -7.115167624000000    -7.180186864000000    -5.596547965000000
 C    -6.514840943000000    -6.811460625000000    -4.766529560000000
 C    -6.515996265000000    -7.512687597000000    -3.553427257000000
 H    -7.115875213000000    -8.415502423000000    -3.455384340000000
 C    -5.756388235000000    -7.070660049000000    -2.459112951000000
 H    -5.754960517000000    -7.609869934000000    -1.518555424000000
 C    -4.995695935000000    -5.904533862000000    -2.611736641000000
 N    -4.174220235000000    -5.241433663000000    -1.736741552000000
 C    -5.022783360000000    -5.240876025000000    -3.826609551000000
 O    -4.214575484000000    -4.147670927000000    -3.723400638000000
 C    -5.758164450000000    -5.644899842000000    -4.934045601000000
 H    -5.745028698000000    -5.089141250000000    -5.862830828000001
 C    -3.737374734000000    -4.207121634000000    -2.436030943000000
 H    7.130892896999999    -5.852697561000000    -6.960065646000000
 C    6.504775934000000    -5.677951272000000    -6.086725507000000
 C    6.341612344000000    -6.700723786000000    -5.142981990000000
 H    6.841382120000000    -7.655700913000000    -5.293947666000000
 C    5.542720330000000    -6.516196705000000    -4.003842921000000
 H    5.413298561000000    -7.305113901000000    -3.271546898000000
 C    4.908946203000000    -5.278518745000001    -3.835674339000000
 N    4.081144266000000    -4.815176010000000    -2.845624811000000
 C    5.095530915000000    -4.294606548000000    -4.791809567000000
 O    4.380613271000000    -3.198772607000000    -4.408416591000000
 C    5.878383217000000    -4.435018706000000    -5.931046985000000
 H    5.991589104000000    -3.633213698000000    -6.649361202000000
 C    3.790709836000000    -3.582691823000000    -3.228079500000000




