%nproc=15
%mem=70GB
%chk=T-brick_PrimaryAmine_Imine.chk
#P B3LYP/6-311++G(d,p) EmpiricalDispersion=GD3 opt SCF=YQC NoSymm

Comment

0 1
 N    1.048041667000000    -2.362353333000000    -0.827760000000000
 C    0.687191667000000    -1.111843333000000    -0.380820000000000
 C    -0.707988333000000    -1.156633333000000    -0.350020000000000
 N    -1.140578333000000    -2.423203333000000    -0.704650000000000
 C    -1.452748333000000    -0.004173333000000    0.016440000000000
 C    -2.937038333000000    0.018916667000000    0.013290000000000
 C    -0.690808333000000    1.125556667000000    0.389200000000000
 H    -1.190148333000000    2.031256667000000    0.727650000000000
 C    0.707131667000000    1.132496667000000    0.363290000000000
 H    1.218751667000000    2.041706667000000    0.676780000000000
 C    1.457221667000000    0.014596667000000    -0.038090000000000
 C    2.930271667000000    0.035566667000000    -0.088570000000000
 C    -3.644438333000000    1.216186667000000    -0.227900000000000
 C    3.614231667000000    1.150886667000000    -0.607650000000000
 C    3.709801667000000    -1.028743333000000    0.397570000000000
 C    -3.714278333000000    -1.126953333000000    0.257540000000000
 C    -5.114658333000000    -1.083173333000000    0.260860000000000
 H    -3.237768333000000    -2.085023333000000    0.454110000000000
 C    5.107441667000000    -0.993503333000000    0.339110000000000
 H    3.237601667000000    -1.893393333000000    0.858000000000000
 C    -5.778958333000000    0.116916667000000    0.034260000000000
 H    -5.680408333000000    -1.992973333000000    0.442850000000000
 C    -5.043148333000000    1.269606667000000    -0.208850000000000
 H    -3.111798333000000    2.138136667000000    -0.449260000000000
 C    5.011001667000000    1.198966667000000    -0.646670000000000
 H    3.058831667000001    2.004406667000000    -0.992550000000000
 C    5.757241667000000    0.121996667000000    -0.180560000000000
 H    5.688571667000000    -1.831683333000000    0.715280000000000
 H    5.511931667000000    2.079726667000000    -1.040580000000000
 H    -5.551588333000000    2.212836667000000    -0.390060000000000
 C    -0.066158333000000    -3.157953333000000    -0.916690000000000
 H    1.993111667000000    -2.657013333000000    -1.011250000000000
 C    -0.040848333000000    -4.599613333000000    -1.196060000000000
 C    -1.251718333000000    -5.281883333000000    -1.390290000000000
 C    -1.273518333000000    -6.658563333000001    -1.631550000000000
 H    -2.193238333000000    -4.735723333000000    -1.348080000000000
 C    1.151281667000000    -5.339883333000000    -1.242140000000000
 C    -0.081488333000000    -7.375973333000000    -1.679350000000000
 H    -2.223038333000000    -7.167013333000000    -1.777580000000000
 C    1.130121667000000    -6.718103333000000    -1.483600000000000
 H    2.116521667000000    -4.871123333000000    -1.078620000000000
 H    2.060961667000000    -7.279213333000000    -1.512890000000000
 N    -7.178892564000000    0.090976470000000    -0.002020672000000
 C    -7.856255341000000    0.971359212000000    0.627694199000000
 C    -9.320647924999999    1.040036095000000    0.573852573000000
 C    -9.987433595000001    2.022667075000000    1.318195432000000
 C    -11.376786506999998    2.114870496000000    1.285456940000000
 C    -12.112849750000001    1.223644289000000    0.507150670000000
 C    -11.455680312000000    0.239686921000000    -0.238168146000000
 C    -10.070921496000000    0.146472604000000    -0.207604495000000
 H    -7.367347775000000    1.722883227000000    1.263469660000000
 H    -9.413165499000000    2.716064840000000    1.924617518000000
 H    -11.882892503000001    2.878591834000000    1.864755590000000
 H    -13.194525886999999    1.292702031000000    0.479538320000000
 H    -12.029717742000001    -0.453050087000000    -0.843230099000000
 H    -9.547907843999999    -0.610038947000000    -0.779669090000000
 N    7.178892564000000    -0.090976470000000    0.002020672000000
 C    7.856255341000000    -0.971359212000000    -0.627694199000000
 C    9.320647924999999    -1.040036095000000    -0.573852573000000
 C    9.987433595000001    -2.022667075000000    -1.318195432000000
 C    11.376786506999998    -2.114870496000000    -1.285456940000000
 C    12.112849750000001    -1.223644289000000    -0.507150670000000
 C    11.455680312000000    -0.239686921000000    0.238168146000000
 C    10.070921496000000    -0.146472604000000    0.207604495000000
 H    7.367347775000000    -1.722883227000000    -1.263469660000000
 H    9.413165499000000    -2.716064840000000    -1.924617518000000
 H    11.882892503000001    -2.878591834000000    -1.864755590000000
 H    13.194525886999999    -1.292702031000000    -0.479538320000000
 H    12.029717742000001    0.453050087000000    0.843230099000000
 H    9.547907843999999    0.610038947000000    0.779669090000000
 N    -0.049830129000000    -8.728728573000000    -2.041090306000000
 C    -0.816973938000000    -9.568908463000000    -1.461415353000000
 C    -0.880970507000000    -10.984519204000000    -1.840904148000000
 C    -1.731556137000000    -11.844850769000001    -1.133410863000000
 C    -1.816167357000000    -13.193258625000000    -1.471807068000000
 C    -1.049480647000000    -13.694153768999998    -2.522106760000000
 C    -0.197655133000000    -12.842899579000001    -3.232953796000000
 C    -0.112342225000000    -11.498424559000000    -2.897858803000001
 H    -1.465550816000000    -9.270090747999999    -0.625900304000000
 H    -2.327936565000000    -11.453792032000001    -0.315037171000000
 H    -2.477240813000000    -13.850297178000000    -0.918378923000000
 H    -1.112987568000000    -14.743351948999999    -2.788010371000000
 H    0.398280193000000    -13.234071049000001    -4.049868398000000
 H    0.542582558000000    -10.826889351000000    -3.439361251000000




