%nproc=15
%mem=70GB
%chk=Adamantane_PrimaryAmine_Ketoenamine.chk
#P B3LYP/6-311++G(d,p) EmpiricalDispersion=GD3 opt SCF=YQC NoSymm

Comment

0 1
 C    -0.000001000000000    -0.000001000000000    1.760854000000000
 C    -0.000001000000000    -0.000001000000000    -1.760853000000000
 H    0.583501000000000    -0.548807000000000    -2.343561000000000
 H    -0.583501000000000    0.548807000000000    -2.343561000000000
 C    0.925717000000000    -0.871783000000000    0.897399000000000
 C    -0.925717000000000    0.871783000000000    0.897399000000000
 C    -0.871783000000000    -0.925717000000000    -0.897399000000000
 C    0.871783000000000    0.925717000000000    -0.897399000000000
 C    1.773370000000000    0.051568000000000    -0.002829000000000
 C    -1.773370000000000    -0.051569000000000    -0.002829000000000
 C    0.051568000000000    -1.773370000000000    0.002829000000000
 C    -0.051569000000000    1.773370000000000    0.002829000000000
 H    2.340312000000000    0.633966000000000    0.562907000000000
 H    -2.340313000000000    -0.633966000000000    0.562907000000000
 H    0.633966000000000    -2.340313000000000    -0.562907000000000
 H    -0.633966000000000    2.340312000000000    -0.562907000000000
 H    2.368699000000000    -0.498341000000000    -0.571393000000000
 H    -2.368700000000000    0.498341000000000    -0.571393000000000
 H    -0.498341000000000    -2.368700000000000    0.571393000000000
 H    0.498341000000000    2.368699000000000    0.571393000000000
 H    -0.548807000000000    -0.583501000000000    2.343561000000000
 H    0.548807000000000    0.583501000000000    2.343561000000000
 H    2.390219878000000    -5.197303484000000    5.522692179000000
 C    3.473031731000000    -5.198064710000000    5.406736466000000
 C    4.239333361000000    -6.033083793000000    6.224923645000000
 H    3.751571996000000    -6.667425081000000    6.961085003000000
 C    5.625227709000000    -6.052969493000000    6.096007307000000
 H    6.222849729000000    -6.701447644000000    6.732099519000000
 C    6.243838981000000    -5.244266268000000    5.146141773000000
 H    7.326413266000000    -5.264263612000000    5.041662659000000
 C    5.478503804000000    -4.410893326000000    4.322382405000000
 H    6.012536645000000    -3.817919401000000    3.589076429000000
 C    4.082363586000000    -4.371653784000000    4.448409734000000
 C    3.189303211000000    -3.506538847000000    3.611567380000000
 O    1.968646920000000    -3.630109645000000    3.688908069000000
 C    3.798281960000000    -2.493168735999999    2.702998125000000
 C    3.069971597000000    -1.714701328000000    1.889746048000000
 H    4.869364330000000    -2.361064082000000    2.697650755000000
 N    1.710210711000000    -1.680173177000000    1.736531779000000
 H    3.607324785000000    -1.005623316000000    1.268300280000000
 H    1.205477802000000    -2.330672351000000    2.345591282000000
 H    -2.390219303000000    5.197303113000000    5.522692708000000
 C    -3.473031082000000    5.198065254000000    5.406736310000000
 C    -4.239332554000000    6.033084681999999    6.224923286000000
 H    -3.751571142000000    6.667425327000000    6.961085165000000
 C    -5.625226805000000    6.052971547000000    6.096006077000000
 H    -6.222848702000000    6.701449967000000    6.732098130000000
 C    -6.243838131000000    5.244269142000000    5.146139881000000
 H    -7.326412333000000    5.264267397000001    5.041660089000000
 C    -5.478503106000000    4.410895858000000    4.322380716000000
 H    -6.012535964000000    3.817922612000000    3.589074202000000
 C    -4.082363000000000    4.371655144000000    4.448408914000000
 C    -3.189302795000000    3.506539766000000    3.611566835000000
 O    -1.968646453000000    3.630109550000000    3.688908338000000
 C    -3.798281790000000    2.493170453000000    2.702996853000000
 C    -3.069971542000000    1.714702730000000    1.889744975000000
 H    -4.869364263000000    2.361066668000000    2.697648762000000
 N    -1.710210588000000    1.680173530000000    1.736531555000000
 H    -3.607324911000000    1.005625361000000    1.268298629000000
 H    -1.205477537000000    2.330672090000000    2.345591596000000
 H    -2.855656152000000    -6.528139490000000    -3.529003584000000
 C    -3.686283650000000    -6.144496438000000    -4.119599710000000
 C    -4.448070545000000    -7.040206445000000    -4.875436748000000
 H    -4.206486592000000    -8.100290638000001    -4.865831510000000
 C    -5.515453888000000    -6.575069961000000    -5.638364568000000
 H    -6.108648822000000    -7.270382783000000    -6.227388458000000
 C    -5.825082208000000    -5.217480031000000    -5.640651422000000
 H    -6.662804718000000    -4.855053932000000    -6.232387156000000
 C    -5.066924265000000    -4.319232656000000    -4.880930368000000
 H    -5.365540392000000    -3.277738684000000    -4.906728080000000
 C    -3.981716977000000    -4.771419795000000    -4.116416098000000
 C    -3.116388016000000    -3.878737689000000    -3.279391451000000
 O    -2.271861309000000    -4.368804419000000    -2.532489619000000
 C    -3.284262158000000    -2.400342319000000    -3.376538736000000
 C    -2.581659557000000    -1.537971485000000    -2.627878226000000
 H    -3.989436343000000    -1.991871047000000    -4.084054295000000
 N    -1.623833288000000    -1.809768741000000    -1.688563816000000
 H    -2.775201219000000    -0.480307428000000    -2.774926815000000
 H    -1.424014860000000    -2.807630195000000    -1.573659177000000
 H    2.855656152000000    6.528139490000000    -3.529003584000000
 C    3.686283650000000    6.144496438000000    -4.119599710000000
 C    4.448070545000000    7.040206445000000    -4.875436748000000
 H    4.206486592000000    8.100290638000001    -4.865831510000000
 C    5.515453888000000    6.575069961000000    -5.638364568000000
 H    6.108648822000000    7.270382783000000    -6.227388458000000
 C    5.825082208000000    5.217480031000000    -5.640651422000000
 H    6.662804718000000    4.855053932000000    -6.232387156000000
 C    5.066924265000000    4.319232656000000    -4.880930368000000
 H    5.365540392000000    3.277738684000000    -4.906728080000000
 C    3.981716977000000    4.771419795000000    -4.116416098000000
 C    3.116388016000000    3.878737689000000    -3.279391451000000
 O    2.271861309000000    4.368804419000000    -2.532489619000000
 C    3.284262158000000    2.400342319000000    -3.376538736000000
 C    2.581659557000000    1.537971485000000    -2.627878226000000
 H    3.989436343000000    1.991871047000000    -4.084054295000000
 N    1.623833288000000    1.809768741000000    -1.688563816000000
 H    2.775201219000000    0.480307428000000    -2.774926815000000
 H    1.424014860000000    2.807630195000000    -1.573659177000000




