%nproc=15
%mem=70GB
%chk=T-brick_Hydrazide_Hydrazone.chk
#P B3LYP/6-311++G(d,p) EmpiricalDispersion=GD3 opt SCF=YQC NoSymm

Comment

0 1
 N    1.048041667000000    -2.362353333000000    -0.827760000000000
 C    0.687191667000000    -1.111843333000000    -0.380820000000000
 C    -0.707988333000000    -1.156633333000000    -0.350020000000000
 N    -1.140578333000000    -2.423203333000000    -0.704650000000000
 C    -1.452748333000000    -0.004173333000000    0.016440000000000
 C    -2.937038333000000    0.018916667000000    0.013290000000000
 C    -0.690808333000000    1.125556667000000    0.389200000000000
 H    -1.190148333000000    2.031256667000000    0.727650000000000
 C    0.707131667000000    1.132496667000000    0.363290000000000
 H    1.218751667000000    2.041706667000000    0.676780000000000
 C    1.457221667000000    0.014596667000000    -0.038090000000000
 C    2.930271667000000    0.035566667000000    -0.088570000000000
 C    -3.644438333000000    1.216186667000000    -0.227900000000000
 C    3.614231667000000    1.150886667000000    -0.607650000000000
 C    3.709801667000000    -1.028743333000000    0.397570000000000
 C    -3.714278333000000    -1.126953333000000    0.257540000000000
 C    -5.114658333000000    -1.083173333000000    0.260860000000000
 H    -3.237768333000000    -2.085023333000000    0.454110000000000
 C    5.107441667000000    -0.993503333000000    0.339110000000000
 H    3.237601667000000    -1.893393333000000    0.858000000000000
 C    -5.778958333000000    0.116916667000000    0.034260000000000
 H    -5.680408333000000    -1.992973333000000    0.442850000000000
 C    -5.043148333000000    1.269606667000000    -0.208850000000000
 H    -3.111798333000000    2.138136667000000    -0.449260000000000
 C    5.011001667000000    1.198966667000000    -0.646670000000000
 H    3.058831667000001    2.004406667000000    -0.992550000000000
 C    5.757241667000000    0.121996667000000    -0.180560000000000
 H    5.688571667000000    -1.831683333000000    0.715280000000000
 H    5.511931667000000    2.079726667000000    -1.040580000000000
 H    -5.551588333000000    2.212836667000000    -0.390060000000000
 C    -0.066158333000000    -3.157953333000000    -0.916690000000000
 H    1.993111667000000    -2.657013333000000    -1.011250000000000
 C    -0.040848333000000    -4.599613333000000    -1.196060000000000
 C    -1.251718333000000    -5.281883333000000    -1.390290000000000
 C    -1.273518333000000    -6.658563333000001    -1.631550000000000
 H    -2.193238333000000    -4.735723333000000    -1.348080000000000
 C    1.151281667000000    -5.339883333000000    -1.242140000000000
 C    -0.081488333000000    -7.375973333000000    -1.679350000000000
 H    -2.223038333000000    -7.167013333000000    -1.777580000000000
 C    1.130121667000000    -6.718103333000000    -1.483600000000000
 H    2.116521667000000    -4.871123333000000    -1.078620000000000
 H    2.060961667000000    -7.279213333000000    -1.512890000000000
 C    -7.276278949000000    0.064646206000000    0.029804410000000
 O    -7.833379457000000    -1.005245574000000    -0.205656907000000
 N    -7.943968158000000    1.252008382000000    0.300526796000000
 H    -7.454355251000000    2.094742072000000    0.562228559000000
 N    -9.306249984000001    1.278154476000000    0.254143488000000
 C    -9.858217464000001    2.432943188000000    0.443065463000000
 C    -11.324089809000002    2.600363659000000    0.407683796000000
 H    -9.258052955000000    3.342076582000000    0.626807231000000
 C    -11.865111911000001    3.881843315000000    0.545495129000000
 C    -13.250081859000000    4.054237661000000    0.503773359000000
 H    -11.224749684000001    4.748961171000000    0.679385052000000
 C    -14.087616570000000    2.951378113000000    0.327894125000000
 H    -13.679072252999999    5.047990756000000    0.606134978000000
 C    -13.545012430000000    1.673275623000000    0.192348428000000
 H    -15.165977281000000    3.087007643000000    0.294710641000000
 C    -12.162142770999999    1.495372222000000    0.230768577000000
 H    -14.196521027999999    0.813922788000000    0.054572820000000
 H    -11.743225251000000    0.496563331000000    0.121375262000000
 C    7.276278949000000    -0.064646206000000    -0.029804410000000
 O    7.833379457000000    1.005245574000000    0.205656907000000
 N    7.943968158000000    -1.252008382000000    -0.300526796000000
 H    7.454355251000000    -2.094742072000000    -0.562228559000000
 N    9.306249984000001    -1.278154476000000    -0.254143488000000
 C    9.858217464000001    -2.432943188000000    -0.443065463000000
 C    11.324089809000002    -2.600363659000000    -0.407683796000000
 H    9.258052955000000    -3.342076582000000    -0.626807231000000
 C    11.865111911000001    -3.881843315000000    -0.545495129000000
 C    13.250081859000000    -4.054237661000000    -0.503773359000000
 H    11.224749684000001    -4.748961171000000    -0.679385052000000
 C    14.087616570000000    -2.951378113000000    -0.327894125000000
 H    13.679072252999999    -5.047990756000000    -0.606134978000000
 C    13.545012430000000    -1.673275623000000    -0.192348428000000
 H    15.165977281000000    -3.087007643000000    -0.294710641000000
 C    12.162142770999999    -1.495372222000000    -0.230768577000000
 H    14.196521027999999    -0.813922788000000    -0.054572820000000
 H    11.743225251000000    -0.496563331000000    -0.121375262000000
 C    -0.018101525000000    -8.829553059000000    -2.036854091000000
 O    1.007297528000000    -9.271622745000000    -2.550276534000000
 N    -1.143960592000000    -9.592292461000000    -1.754722225000000
 H    -1.940319299000000    -9.211944403000000    -1.265276776000000
 N    -1.165634161000000    -10.908390198999999    -2.109776871000000
 C    -2.272879490000000    -11.538568804000001    -1.884434262000000
 C    -2.431578436000000    -12.964104945000001    -2.231888670000000
 H    -3.147776477000000    -11.035871224999999    -1.434620513000000
 C    -3.671965246000000    -13.577562385000000    -2.034410782000000
 C    -3.837227304000000    -14.923161007999999    -2.368559061000000
 H    -4.513368113000000    -13.022620237000000    -1.629485976000000
 C    -2.767743723000000    -15.650161908000001    -2.894269668000000
 H    -4.799730381000000    -15.407045970000000    -2.221933538000000
 C    -1.530357510000000    -15.035825942000001    -3.088703576000000
 H    -2.897910772000000    -16.697770121000001    -3.154907165000000
 C    -1.360143903000000    -13.691282358000000    -2.759030859000000
 H    -0.697133004000000    -15.601070436000001    -3.498787045000000
 H    -0.393645873000000    -13.215383614000000    -2.915491486000000




