%nproc=15
%mem=70GB
%chk=TetraPhenylMethane_PrimaryAmine_Ketoenamine_freq.chk
#P B3LYP/6-311++G(d,p) EmpiricalDispersion=GD3 freq(noraman) SCF=YQC NoSymm

Restart from TetraPhenylMethane_PrimaryAmine_Ketoenamine.log

0 1
 C   0.000002   0.000002  -0.012531
 C  -0.449989  -3.391093  -2.762029
 C  -3.397267   0.446452   2.728826
 C   0.449990   3.391095  -2.762030
 C   3.397271  -0.446448   2.728826
 C  -1.404530  -3.170928  -1.766633
 C  -3.165668   1.410364   1.745109
 C   1.404532   3.170930  -1.766635
 C   3.165671  -1.410361   1.745110
 C  -1.270212  -2.099421  -0.883091
 C  -2.096822   1.273069   0.858939
 C   1.270214   2.099424  -0.883093
 C   2.096825  -1.273066   0.858939
 C  -0.189388  -1.220970  -0.949484
 C  -1.221645   0.189305   0.923451
 C   0.189390   1.220973  -0.949485
 C   1.221648  -0.189301   0.923450
 C   0.752714  -1.445955  -1.966694
 C  -1.445810  -0.751059   1.942496
 C  -0.752712   1.445958  -1.966694
 C   1.445814   0.751064   1.942495
 C   0.636410  -2.506061  -2.849334
 C  -2.510641  -0.638066   2.820086
 C  -0.636409   2.506063  -2.849335
 C   2.510645   0.638071   2.820085
 H  -2.260344  -3.825083  -1.659181
 H  -3.795187   2.287600   1.665899
 H   2.260346   3.825086  -1.659184
 H   3.795190  -2.287597   1.665901
 H  -2.040178  -1.958983  -0.137452
 H  -1.946740   2.050161   0.122585
 H   2.040182   1.958986  -0.137455
 H   1.946743  -2.050159   0.122586
 H   1.590098  -0.766719  -2.074755
 H  -0.765847  -1.587614   2.052329
 H  -1.590096   0.766721  -2.074754
 H   0.765852   1.587619   2.052328
 H   1.381520  -2.649706  -3.624701
 H  -2.661148  -1.388168   3.589279
 H  -1.381519   2.649708  -3.624701
 H   2.661152   1.388173   3.589278
 H   1.144956  -6.895647  -7.800427
 C   0.464730  -7.732397  -7.701810
 C   0.472811  -8.775021  -8.621302
 H   1.161889  -8.751735  -9.458123
 C  -0.401905  -9.851639  -8.466555
 H  -0.393507  -10.667359  -9.180909
 C  -1.283756  -9.877448  -7.387226
 H  -1.957064  -10.716929  -7.255312
 C  -1.300099  -8.826992  -6.472728
 H  -1.980952  -8.873532  -5.631996
 C  -0.427673  -7.740203  -6.620687
 C  -0.381951  -6.586899  -5.661470
 O   0.614558  -5.839704  -5.666026
 C  -1.498512  -6.354716  -4.769928
 C  -1.514844  -5.332122  -3.858126
 H  -2.377845  -6.978270  -4.825682
 N  -0.513864  -4.443586  -3.683979
 H  -2.386898  -5.203453  -3.227728
 H   0.267767  -4.586764  -4.328663
 H  -7.178658  -1.354172   7.494956
 C  -7.828069  -0.492555   7.586954
 C  -8.834746  -0.452635   8.544856
 H  -8.983753  -1.298029   9.207239
 C  -9.650225   0.674591   8.656791
 H  -10.432912   0.708449   9.406480
 C  -9.451680   1.759916   7.804786
 H  -10.074069   2.643044   7.895291
 C  -8.450617   1.715121   6.837360
 H  -8.301331   2.574992   6.196365
 C  -7.628442   0.586773   6.714909
 C  -6.521204   0.482465   5.707116
 O  -5.645219  -0.388908   5.863676
 C  -6.504804   1.376352   4.568546
 C  -5.512750   1.349581   3.623960
 H  -7.310742   2.078027   4.415948
 N  -4.455329   0.510824   3.644478
 H  -5.566205   2.032642   2.784079
 H  -4.476482  -0.146104   4.428711
 H  -1.144957   6.895644  -7.800432
 C  -0.464732   7.732396  -7.701815
 C  -0.472814   8.775020  -8.621307
 H  -1.161891   8.751732  -9.458128
 C   0.401901   9.851639  -8.466559
 H   0.393502   10.667358  -9.180914
 C   1.283750   9.877449  -7.387231
 H   1.957057   10.716931  -7.255316
 C   1.300094   8.826994  -6.472732
 H   1.980947   8.873535  -5.631999
 C   0.427670   7.740204  -6.620691
 C   0.381949   6.586900  -5.661473
 O  -0.614559   5.839704  -5.666029
 C   1.498510   6.354719  -4.769930
 C   1.514843   5.332125  -3.858127
 H   2.377842   6.978274  -4.825684
 N   0.513864   4.443588  -3.683981
 H   2.386896   5.203458  -3.227729
 H  -0.267767   4.586764  -4.328665
 H   7.178655   1.354167   7.494965
 C   7.828066   0.492550   7.586963
 C   8.834741   0.452626   8.544867
 H   8.983747   1.298018   9.207253
 C   9.650219  -0.674601   8.656801
 H   10.432904  -0.708461   9.406491
 C   9.451675  -1.759923   7.804792
 H   10.074064  -2.643051   7.895296
 C   8.450615  -1.715124   6.837364
 H   8.301330  -2.574994   6.196365
 C   7.628441  -0.586776   6.714914
 C   6.521205  -0.482464   5.707119
 O   5.645217   0.388905   5.863682
 C   6.504806  -1.376349   4.568546
 C   5.512753  -1.349577   3.623960
 H   7.310746  -2.078023   4.415948
 N   4.455332  -0.510820   3.644479
 H   5.566210  -2.032636   2.784078
 H   4.476485   0.146107   4.428712






