%nproc=15
%mem=70GB
%chk=TetraPhenylMethane_PrimaryAmine_Ketoenamine.chk
#P B3LYP/6-311++G(d,p) EmpiricalDispersion=GD3 opt SCF=YQC NoSymm

Comment

0 1
 C    -0.000000000000000    0.000000000000000    -0.000000000000000
 C    -0.334711000000000    -3.282421000000000    -2.523411000000000
 C    -3.282421000000000    0.334711000000000    2.523412000000000
 C    0.334711000000000    3.282422000000000    -2.523411000000000
 C    3.282421000000000    -0.334711000000000    2.523412000000000
 C    -1.442915000000000    -2.894269000000000    -1.866366000000000
 C    -2.894268000000000    1.442915000000000    1.866365000000000
 C    1.442915000000000    2.894269000000000    -1.866366000000000
 C    2.894269000000000    -1.442914000000000    1.866365000000000
 C    -1.355721000000000    -1.850757000000000    -1.055712000000000
 C    -1.850756000000000    1.355721000000000    1.055713000000000
 C    1.355722000000000    1.850757000000000    -1.055712000000000
 C    1.850757000000000    -1.355721000000000    1.055713000000000
 C    -0.132197000000000    -1.201023000000000    -0.847056000000000
 C    -1.201023000000000    0.132197000000000    0.847056000000000
 C    0.132198000000000    1.201023000000000    -0.847056000000000
 C    1.201024000000000    -0.132198000000000    0.847056000000000
 C    0.964755000000000    -1.566674000000000    -1.552049000000000
 C    -1.566674000000000    -0.964756000000000    1.552050000000000
 C    -0.964756000000000    1.566674000000000    -1.552049000000000
 C    1.566675000000000    0.964754000000000    1.552050000000000
 C    0.874751000000000    -2.604561000000000    -2.363589000000000
 C    -2.604559000000000    -0.874752000000000    2.363589000000000
 C    -0.874750000000000    2.604559000000000    -2.363589000000000
 C    2.604560000000000    0.874750000000000    2.363589000000000
 H    -2.387983000000000    -3.392116000000000    -1.994223000000000
 H    -3.392115000000000    2.387984000000000    1.994223000000000
 H    2.387983000000000    3.392116000000000    -1.994223000000000
 H    3.392116000000000    -2.387983000000000    1.994223000000000
 H    -2.258597000000000    -1.552610000000000    -0.616202000000000
 H    -1.552610000000000    2.258597000000000    0.616202000000000
 H    2.258598000000000    1.552609000000000    -0.616202000000000
 H    1.552610000000000    -2.258598000000000    0.616202000000000
 H    1.907010000000000    -1.051950000000000    -1.461484000000000
 H    -1.051950000000000    -1.907011000000000    1.461484000000000
 H    -1.907010000000000    1.051952000000000    -1.461484000000000
 H    1.051951000000000    1.907009000000000    1.461484000000000
 H    1.760751000000000    -2.888643000000000    -2.847495000000000
 H    -2.888643000000000    -1.760751000000000    2.847496000000000
 H    -1.760749000000000    2.888644000000000    -2.847495000000000
 H    2.888643000000000    1.760751000000000    2.847496000000000
 H    1.656093570000000    -7.691333636000000    -6.864657325000000
 C    0.741192550000000    -8.278306432999999    -6.930588150000000
 C    0.712271986000000    -9.391386812000000    -7.775644948000000
 H    1.594699397000000    -9.657622666000000    -8.352423846000001
 C    -0.444871070000000    -10.158470535999999    -7.877234891000000
 H    -0.469266952000000    -11.024246651000000    -8.534597692000000
 C    -1.569404420000000    -9.817363400000000    -7.130243586000000
 H    -2.471654962000000    -10.420332864000001    -7.205440968000000
 C    -1.541489602000000    -8.706215822000001    -6.279714507000000
 H    -2.439527820000000    -8.499790129000001    -5.709221212000000
 C    -0.386746044000000    -7.917325542000000    -6.175553199000000
 C    -0.272937695000000    -6.710443214000001    -5.294208478000000
 O    0.814175780000000    -6.153637937000000    -5.154905641000000
 C    -1.490262564000000    -6.191808791000000    -4.606887090000000
 C    -1.461652169000000    -5.146819611000000    -3.767241039000000
 H    -2.444588999000000    -6.660187675000000    -4.792843947000000
 N    -0.388708086000000    -4.382852162000000    -3.394734393000000
 H    -2.402372942000000    -4.844033064000000    -3.318799681000000
 H    0.491578810000000    -4.654077640000000    -3.842383457000000
 H    -7.855623380000000    -1.721071060000000    6.659571237000000
 C    -8.337378521000000    -0.764555673000000    6.856847979000000
 C    -9.416028192000001    -0.722017447000000    7.744885538000000
 H    -9.759447005000000    -1.634971247000000    8.225314972000000
 C    -10.048581593000000    0.488333356000000    8.014413158000000
 H    -10.888186583000000    0.523080161000000    8.704446065000001
 C    -9.599456408000000    1.655588590000000    7.402263559000000
 H    -10.090259250000001    2.602201867000000    7.617481437000000
 C    -8.516576002000001    1.616493833000000    6.516447824000000
 H    -8.199233436000000    2.558400453000000    6.084414929000000
 C    -7.876615682000000    0.402847365000000    6.226373391000000
 C    -6.715162541000000    0.271071371000000    5.288318222000000
 O    -6.123693622000000    -0.802332388000000    5.192287007000000
 C    -6.301211108000000    1.446993291000000    4.470318197000000
 C    -5.245555108000000    1.422601640000000    3.643987822000000
 H    -6.873613810000000    2.360177550000000    4.526419300000000
 N    -4.389203516000000    0.386196143000000    3.386806826000000
 H    -5.027525888000000    2.329800230000000    3.089741581000000
 H    -4.615803663000000    -0.476441071000000    3.890162936000000
 H    -1.656092774000000    7.691333062000000    -6.864659289000000
 C    -0.741192259000000    8.278306776999999    -6.930588965000000
 C    -0.712271795000000    9.391387264000000    -7.775645624000000
 H    -1.594698782000000    9.657622293999999    -8.352425551000000
 C    0.444870619000000    10.158472150000000    -7.877234111000000
 H    0.469266424000000    11.024248352000001    -8.534596800999999
 C    1.569403416000000    9.817366064000000    -7.130241495000000
 H    2.471653448000000    10.420336433999999    -7.205437741000000
 C    1.541488689000000    8.706218377999999    -6.279712553999999
 H    2.439526430000000    8.499793524999999    -5.709218205000000
 C    0.386745792000000    7.917326938000000    -6.175552700000000
 C    0.272937592000000    6.710444413000000    -5.294208228000000
 O    -0.814175496000000    6.153638041000000    -5.154906743000000
 C    1.490262156000000    6.191811138000000    -4.606885434000000
 C    1.461651798000000    5.146821851000000    -3.767239517000000
 H    2.444588347000000    6.660190991000000    -4.792841108000000
 N    0.388708031000000    4.382853298000000    -3.394734224000000
 H    2.402372337000000    4.844036198000000    -3.318797063000000
 H    -0.491578600000000    4.654077941000000    -3.842384315000000
 H    7.855623375000000    1.721072030000000    6.659570761000000
 C    8.337377623000000    0.764556466000000    6.856848826000001
 C    9.416026883000001    0.722018366000000    7.744886890000000
 H    9.759446265999999    1.634972438000000    8.225315398999999
 C    10.048579146000000    -0.488332657000000    8.014416192000001
 H    10.888183815000000    -0.523079365000000    8.704449495000000
 C    9.599453232000000    -1.655588227000000    7.402267770000000
 H    10.090255181000000    -2.602201668000000    7.617486963000000
 C    8.516573232000001    -1.616493590000000    6.516451532000000
 H    8.199230051000001    -2.558400446999999    6.084419606000000
 C    7.876614062000000    -0.402846920000000    6.226375409000000
 C    6.715161428000000    -0.271071041000000    5.288319596000000
 O    6.123693458000000    0.802333106000000    5.192286875000000
 C    6.301209345000000    -1.446993568000000    4.470320772000000
 C    5.245553715000000    -1.422601990000000    3.643989924000000
 H    6.873611251000000    -2.360178245000000    4.526423185000001
 N    4.389203108000000    -0.386196069000000    3.386807353000000
 H    5.027523960000001    -2.329801045000000    3.089744652000000
 H    4.615803773000000    0.476441542000000    3.890162549000000




