%nproc=15
%mem=70GB
%chk=TP_Catechol_BoronateEster.chk
#P B3LYP/6-311++G(d,p) EmpiricalDispersion=GD3 opt SCF=YQC

Comment

0 1
 C    -0.603476000000000    1.312019000000000    -0.000004000000000
 C    -0.834504000000000    -1.178634000000000    -0.000004000000000
 C    1.437979000000000    -0.133384000000000    -0.000004000000000
 C    -1.439925000000000    0.110456000000000    -0.000004000000000
 C    0.815621000000000    1.191783000000000    -0.000004000000000
 C    0.624305000000000    -1.302240000000000    -0.000004000000000
 C    -0.387127000000000    3.698946000000000    -0.000004000000000
 C    -3.009817000000000    -2.184735000000000    -0.000004000000000
 C    3.396945000000000    -1.514211000000000    -0.000004000000000
 C    -3.603278000000000    -0.921119000000000    -0.000003000000000
 C    1.003926000000000    3.581089000000000    -0.000003000000000
 C    2.599351000000000    -2.659971000000000    -0.000003000000000
 H    -2.270854000000000    2.738354000000000    -0.000003000000000
 H    -1.236057000000000    -3.335794000000000    -0.000003000000000
 H    3.506911000000000    0.597440000000000    -0.000003000000000
 H    -3.356441000000000    1.178916000000000    -0.000003000000000
 H    2.699192000000000    2.317306000000000    -0.000003000000000
 H    0.657249000000000    -3.496222000000000    -0.000003000000000
 C    -1.200386000000000    2.600297000000000    -0.000003000000000
 C    -1.651731000000000    -2.339713000000000    -0.000003000000000
 C    2.852117000000000    -0.260584000000000    -0.000003000000000
 C    -2.855306000000000    0.222978000000000    -0.000003000000000
 C    1.620758000000000    2.361278000000000    -0.000003000000000
 C    1.234548000000000    -2.584256000000000    -0.000003000000000
 B    0.485302824000000    5.727254516000000    -0.000009000000000
 C    0.614971541000000    7.257465174000000    -0.000000000000000
 C    -0.528278530000000    8.074333522000000    0.000003000000000
 C    1.879338573000000    7.870420503000000    0.000004000000000
 C    -0.411948781000000    9.461324102000001    0.000010000000000
 C    1.997930482000000    9.257223032000001    0.000010000000000
 C    0.851784495000000    10.053421758000001    0.000013000000000
 O    -0.725813415000000    5.033508637000000    -0.000003000000000
 O    1.562386531000000    4.839588205000000    -0.000002000000000
 H    -1.301488414000000    10.081290949000000    0.000012000000000
 H    2.979069837000000    9.718752008000001    0.000012000000000
 H    2.769955483000000    7.251456841000000    0.000001000000000
 H    -1.510302878000000    7.613970611000000    -0.000000000000000
 H    0.943311811000000    11.134087194999999    0.000018000000000
 B    -5.202588019000000    -2.443348128000000    -0.000009000000000
 C    -6.592622575000000    -3.096159407000000    0.000000000000000
 C    -6.728423913000000    -4.494677416000000    0.000003000000000
 C    -7.755642313000000    -2.307665072000000    0.000004000000000
 C    -7.987756861000000    -5.087430320000000    0.000010000000000
 C    -9.015943486999999    -2.898364864000000    0.000010000000000
 C    -9.132396462999999    -4.289055966000000    0.000013000000000
 O    -3.996227156000000    -3.145330576000000    -0.000003000000000
 O    -4.972390628000000    -1.066732731000000    -0.000002000000000
 H    -8.079892255000001    -6.167777819000000    0.000012000000000
 H    -9.906210030000000    -2.279439253000000    0.000012000000000
 H    -7.664914342000000    -1.226886218000000    0.000001000000000
 H    -5.838724714000000    -5.114952486000000    0.000000000000000
 H    -10.114043061000000    -4.750125364000000    0.000018000000000
 B    4.717291406000000    -3.283910023000000    -0.000009000000000
 C    5.977658134000000    -4.161312066000000    -0.000000000000000
 C    7.256712055000000    -3.579662952000000    0.000003000000000
 C    5.876309158000000    -5.562763675000000    0.000004000000000
 C    8.399716059999999    -4.373903042000000    0.000010000000000
 C    7.018019227000000    -6.358868827000000    0.000010000000000
 C    8.280620690999999    -5.764376961000000    0.000013000000000
 O    4.722048316000000    -1.888179654000000    -0.000003000000000
 O    3.410007857000000    -3.772858396000000    -0.000002000000000
 H    9.381393030000000    -3.913522788000000    0.000012000000000
 H    6.927145100000000    -7.439324899000000    0.000012000000000
 H    4.894962334000000    -6.024578470000000    0.000001000000000
 H    7.349038520000000    -2.499023487000000    -0.000000000000000
 H    9.170740601000000    -6.383974881000000    0.000018000000000




