%nproc=15
%mem=70GB
%chk=N-TrisPhenyl_Ketoenamine_Ketoenamine.chk
#P B3LYP/6-311++G(d,p) EmpiricalDispersion=GD3 opt SCF=YQC NoSymm

Comment

0 1
 N    0.000000000000000    0.000000000000000    0.000000000000000
 C    1.486664194000000    0.115830323000000    -0.171934194000000
 C    -0.789065806000000    1.237760323000000    0.199745806000000
 C    -0.613895806000000    -1.236089677000000    -0.038794194000000
 C    -0.462675806000000    2.500160323000000    -0.322134194000000
 C    2.176224194000000    -0.918259677000000    -0.846584194000000
 C    -1.765025806000000    -1.441179677000000    -0.822204194000000
 C    -2.007925806000000    1.140170323000000    0.910585806000000
 C    -1.297715806000000    3.610210323000000    -0.126194194000000
 H    0.438864194000000    2.642570323000000    -0.911754194000000
 C    2.273194194000000    1.157440323000000    0.348705806000000
 C    3.570374194000000    -0.927389677000000    -0.965384194000000
 H    1.632104194000000    -1.749019677000000    -1.289124194000000
 C    -0.125815806000000    -2.315259677000000    0.720105806000000
 C    -2.414125806000000    -2.677449677000000    -0.833324194000000
 H    -2.163745806000000    -0.629609677000000    -1.426834194000000
 C    -2.865415806000000    2.233870323000000    1.065575806000000
 H    -2.315445806000000    0.194440323000000    1.350765806000000
 C    -2.504725806000000    3.472930323000000    0.555025806000000
 H    -1.010125806000000    4.580640323000000    -0.521804194000000
 C    3.666684194000001    1.177220323000000    0.186235806000000
 H    1.821684194000000    1.969990323000000    0.911145806000000
 C    4.315594194000000    0.127230323000000    -0.457594194000000
 H    4.064904194000000    -1.761929677000000    -1.456734194000000
 C    -0.759375806000000    -3.559559677000000    0.685245806000000
 H    0.753504194000000    -2.187099677000000    1.347095806000000
 C    -1.906875806000000    -3.737209677000000    -0.084874194000000
 H    -3.314085806000000    -2.810259677000000    -1.427784194000000
 H    -3.812175806000000    2.108150323000000    1.585245806000000
 H    4.245704194000000    2.009030323000000    0.578395806000000
 H    -0.358405806000000    -4.386819677000000    1.264815806000000
 C    -3.321791151000000    4.723196720000000    0.679621033000000
 O    -2.899620757000000    5.780053733000000    0.214778566000000
 C    -4.648737970000000    4.662854013999999    1.357000609000000
 C    -5.417165542000000    5.744790772000000    1.548725276000000
 H    -5.025248917000000    3.712288017000000    1.702487902000000
 N    -5.169982042000000    7.040481927000000    1.183073502000000
 H    -6.368073305000000    5.596158050000000    2.050140931000000
 C    -5.959945488000000    8.187245733999999    1.367354287000000
 H    -4.284825730000000    7.171350686000000    0.684847014000000
 C    -7.177094260000000    8.188088197000001    2.061667279000000
 C    -5.521968935000000    9.404074824000000    0.821866197000000
 C    -7.929257638000000    9.359288084000001    2.208187053000000
 H    -7.567405537000000    7.280965506000000    2.509452331000000
 C    -7.475984189000000    10.554291192000001    1.659237858000000
 H    -8.869223683000000    9.332333222000001    2.752998552000000
 C    -6.270576998000000    10.577456700999999    0.964894754000000
 H    -4.584350559000000    9.447370469000001    0.272508285000000
 H    -8.060256742000000    11.463286360000000    1.772584390000000
 H    -5.909714672000000    11.506580078000001    0.532163595000000
 C    5.797509357000000    0.099222022000000    -0.679920074000000
 O    6.316454186000000    -0.869930099000000    -1.230095987000000
 C    6.623030983000000    1.260599598000000    -0.240615666000000
 C    7.957999495000000    1.291210728000000    -0.362058910000000
 H    6.137787339000000    2.125896404000000    0.184234567000000
 N    8.787660381000000    0.336164642000000    -0.884712006000000
 H    8.468044200000000    2.183892106000000    -0.014626509000000
 C    10.184987564000000    0.347459721000000    -1.027603745000000
 H    8.299562241000000    -0.492184078000000    -1.237496027000000
 C    11.004489275999999    1.384733592000000    -0.562843341000000
 C    10.806132182000001    -0.729330396000000    -1.679336941000000
 C    12.392409106000001    1.349145126000000    -0.739871510000000
 H    10.585457008000001    2.242107864000000    -0.048015952000000
 C    12.986827888000001    0.271926942000000    -1.388795051000000
 H    13.004949226000001    2.166254841000000    -0.368107319000000
 C    12.193087042000000    -0.769259608000000    -1.859498272000000
 H    10.207027414000001    -1.553982933000000    -2.058571061000000
 H    14.064210004000000    0.244699363000000    -1.526637362000000
 H    12.649319494000000    -1.614056632000000    -2.368338189000000
 C    -2.638012829000000    -5.041135732000000    -0.192118351000000
 O    -3.661289606000000    -5.116077250000000    -0.869275284000000
 C    -2.102007812000000    -6.238352674000000    0.516854432000000
 C    -2.722264605000000    -7.427060199000000    0.507779145000000
 H    -1.169413901000000    -6.163007349000000    1.054710693000000
 N    -3.890726631000000    -7.773154974000000    -0.115543701000000
 H    -2.249785975000000    -8.238049002000000    1.052569034000000
 C    -4.555868219000000    -9.010016841000001    -0.144323458000000
 H    -4.318100231000000    -7.012615488000000    -0.652003820000000
 C    -4.126719686000000    -10.138932029999999    0.566242798000000
 C    -5.709926698000000    -9.138245778000000    -0.932841130000000
 C    -4.823343805000000    -11.350755005000000    0.494640557000000
 H    -3.244749072000000    -10.102834995000000    1.195965565000000
 C    -5.964872238000000    -11.455214176000002    -0.293290648000000
 H    -4.469613823000000    -12.210593337000001    1.057344246000000
 C    -6.409422433000000    -10.347664863000000    -1.008388632000000
 H    -6.075886494000000    -8.287624943999999    -1.503204586000000
 H    -6.505237220000000    -12.396156469999998    -0.349213403000000
 H    -7.299740752000000    -10.420980360000000    -1.627021198000000




