%nproc=15
%mem=70GB
%chk=TetraPhenylSilane_Aldehyde_Azine_freq.chk
#P B3LYP/6-311++G(d,p) EmpiricalDispersion=GD3 freq(noraman) SCF=YQC

Restart from TetraPhenylSilane_Aldehyde_Azine-1.log

0 1
Si   0.000001   0.000001   0.000258
 C   1.813154   3.393076  -2.728635
 C   3.393026  -1.813204   2.729179
 C  -1.813153  -3.393073  -2.728638
 C  -3.393026   1.813202   2.729181
 C   2.495022   2.970761  -1.575485
 C   2.970593  -2.495148   1.576118
 C  -2.495021  -2.970759  -1.575487
 C  -2.970594   2.495147   1.576119
 C   1.970781   1.959238  -0.782859
 C   1.959087  -1.970888   0.783482
 C  -1.970779  -1.959236  -0.782860
 C  -1.959088   1.970887   0.783483
 C   0.753494   1.331601  -1.104028
 C   1.331591  -0.753502   1.104550
 C  -0.753493  -1.331599  -1.104029
 C  -1.331590   0.753502   1.104551
 C   0.084211   1.754380  -2.263306
 C   1.754458  -0.084164   2.263764
 C  -0.084211  -1.754376  -2.263308
 C  -1.754455   0.084164   2.263765
 C   0.602044   2.769208  -3.061714
 C   2.769246  -0.602032   3.062199
 C  -0.602044  -2.769204  -3.061717
 C  -2.769243   0.602031   3.062201
 H   3.434459   3.445082  -1.319699
 H   3.444809  -3.434659   1.320407
 H  -3.434458  -3.445080  -1.319701
 H  -3.444811   3.434657   1.320409
 H   2.520970   1.645072   0.097859
 H   1.644811  -2.521144  -0.097156
 H  -2.520968  -1.645071   0.097859
 H  -1.644813   2.521143  -0.097155
 H  -0.847871   1.280418  -2.554391
 H   1.280584   0.847983   2.554788
 H   0.847872  -1.280414  -2.554393
 H  -1.280580  -0.847983   2.554789
 H   0.067600   3.080680  -3.953758
 H   3.080765  -0.067562   3.954210
 H  -0.067600  -3.080674  -3.953761
 H  -3.080761   0.067561   3.954212
 C   2.326313   4.454918  -3.592337
 N   3.429128   5.065775  -3.348222
 H   1.736821   4.726384  -4.472936
 N   3.724980   6.037735  -4.295623
 C   4.828944   6.646770  -4.050602
 C   5.345441   7.710078  -4.910175
 H   5.417057   6.371998  -3.170069
 C   6.560498   8.325245  -4.574092
 C   7.084863   9.341989  -5.367957
 H   7.094080   8.002710  -3.685843
 C   6.399735   9.756233  -6.508484
 H   8.024810   9.809310  -5.097412
 C   5.187728   9.149417  -6.852093
 H   6.805446   10.547696  -7.128570
 C   4.662404   8.135511  -6.062892
 H   4.654798   9.471943  -7.739545
 H   3.724645   7.659135  -6.320104
 C   4.454904  -2.326343   3.592847
 N   5.066568  -3.428567   3.348083
 H   4.725667  -1.737373   4.474012
 N   6.038361  -3.724547   4.295615
 C   6.648045  -4.828036   4.050070
 C   7.711352  -5.344538   4.909641
 H   6.373870  -5.415708   3.169057
 C   8.327059  -6.559200   4.573121
 C   9.343814  -7.083560   5.366975
 H   8.004936  -7.092478   3.684541
 C   9.757536  -6.398817   6.507922
 H   9.811552  -8.023202   5.096092
 C   9.150185  -5.187201   6.851965
 H   10.549010  -6.804524   7.127998
 C   8.136261  -4.661888   6.062780
 H   9.472310  -4.654567   7.739740
 H   7.659470  -3.724432   6.320329
 C  -2.326312  -4.454913  -3.592340
 N  -3.429127  -5.065771  -3.348225
 H  -1.736821  -4.726378  -4.472940
 N  -3.724980  -6.037730  -4.295628
 C  -4.828943  -6.646766  -4.050606
 C  -5.345440  -7.710073  -4.910180
 H  -5.417055  -6.371995  -3.170073
 C  -6.560497  -8.325241  -4.574097
 C  -7.084862  -9.341984  -5.367963
 H  -7.094079  -8.002707  -3.685848
 C  -6.399735  -9.756226  -6.508490
 H  -8.024809  -9.809305  -5.097418
 C  -5.187728  -9.149410  -6.852100
 H  -6.805446  -10.547689  -7.128577
 C  -4.662404  -8.135505  -6.062897
 H  -4.654798  -9.471935  -7.739552
 H  -3.724645  -7.659128  -6.320110
 C  -4.454903   2.326340   3.592850
 N  -5.066569   3.428563   3.348085
 H  -4.725665   1.737370   4.474014
 N  -6.038361   3.724542   4.295618
 C  -6.648046   4.828031   4.050073
 C  -7.711354   5.344531   4.909645
 H  -6.373874   5.415703   3.169060
 C  -8.327063   6.559193   4.573125
 C  -9.343817   7.083552   5.366979
 H  -8.004940   7.092471   3.684544
 C  -9.757539   6.398809   6.507926
 H  -9.811557   8.023193   5.096096
 C  -9.150186   5.187193   6.851969
 H  -10.549013   6.804514   7.128003
 C  -8.136262   4.661881   6.062784
 H  -9.472310   4.654559   7.739744
 H  -7.659470   3.724425   6.320332






