%nproc=15
%mem=70GB
%chk=TetraPhenylSilane_Aldehyde_Azine.chk
#P B3LYP/6-311++G(d,p) EmpiricalDispersion=GD3 opt SCF=YQC

Comment

0 1
Si    -0.000000000000000    0.000000000000000    -0.000000000000000
 C    -0.334711000000000    -3.282421000000000    -2.523411000000000
 C    -3.282421000000000    0.334711000000000    2.523412000000000
 C    0.334711000000000    3.282422000000000    -2.523411000000000
 C    3.282421000000000    -0.334711000000000    2.523412000000000
 C    -1.442915000000000    -2.894269000000000    -1.866366000000000
 C    -2.894268000000000    1.442915000000000    1.866365000000000
 C    1.442915000000000    2.894269000000000    -1.866366000000000
 C    2.894269000000000    -1.442914000000000    1.866365000000000
 C    -1.355721000000000    -1.850757000000000    -1.055712000000000
 C    -1.850756000000000    1.355721000000000    1.055713000000000
 C    1.355722000000000    1.850757000000000    -1.055712000000000
 C    1.850757000000000    -1.355721000000000    1.055713000000000
 C    -0.132197000000000    -1.201023000000000    -0.847056000000000
 C    -1.201023000000000    0.132197000000000    0.847056000000000
 C    0.132198000000000    1.201023000000000    -0.847056000000000
 C    1.201024000000000    -0.132198000000000    0.847056000000000
 C    0.964755000000000    -1.566674000000000    -1.552049000000000
 C    -1.566674000000000    -0.964756000000000    1.552050000000000
 C    -0.964756000000000    1.566674000000000    -1.552049000000000
 C    1.566675000000000    0.964754000000000    1.552050000000000
 C    0.874751000000000    -2.604561000000000    -2.363589000000000
 C    -2.604559000000000    -0.874752000000000    2.363589000000000
 C    -0.874750000000000    2.604559000000000    -2.363589000000000
 C    2.604560000000000    0.874750000000000    2.363589000000000
 H    -2.387983000000000    -3.392116000000000    -1.994223000000000
 H    -3.392115000000000    2.387984000000000    1.994223000000000
 H    2.387983000000000    3.392116000000000    -1.994223000000000
 H    3.392116000000000    -2.387983000000000    1.994223000000000
 H    -2.258597000000000    -1.552610000000000    -0.616202000000000
 H    -1.552610000000000    2.258597000000000    0.616202000000000
 H    2.258598000000000    1.552609000000000    -0.616202000000000
 H    1.552610000000000    -2.258598000000000    0.616202000000000
 H    1.907010000000000    -1.051950000000000    -1.461484000000000
 H    -1.051950000000000    -1.907011000000000    1.461484000000000
 H    -1.907010000000000    1.051952000000000    -1.461484000000000
 H    1.051951000000000    1.907009000000000    1.461484000000000
 H    1.760751000000000    -2.888643000000000    -2.847495000000000
 H    -2.888643000000000    -1.760751000000000    2.847496000000000
 H    -1.760749000000000    2.888644000000000    -2.847495000000000
 H    2.888643000000000    1.760751000000000    2.847496000000000
 C    -0.413026241000000    -4.447105646000000    -3.424821936000000
 N    -1.516122084000000    -5.092919161000000    -3.637340940000000
 H    0.524528849000000    -4.751729788000000    -3.925498444000000
 N    -1.304995170000000    -6.130136744000000    -4.543166412000000
 C    -2.403577508000000    -6.778134248000000    -4.769155908000000
 C    -2.467497357000000    -7.912470691000000    -5.710632426000000
 H    -3.344013404000000    -6.494908049000000    -4.261762542000000
 C    -3.694351345000000    -8.552137079000000    -5.911336081000000
 C    -3.781686147000000    -9.617340149999999    -6.809903282000000
 H    -4.584689847000000    -8.228803320000001    -5.378768306000000
 C    -2.647561606000000    -10.041392301000000    -7.503852450000000
 H    -4.734147389000000    -10.116091120000000    -6.971544485000000
 C    -1.422987980000000    -9.404123155000001    -7.300645083000000
 H    -2.717958570000000    -10.869390868000000    -8.205235381000000
 C    -1.330338940000000    -8.338594459999999    -6.403593371000000
 H    -0.540448042000000    -9.735101977999999    -7.842329362000000
 H    -0.374000356000000    -7.844042254000000    -6.251778489000000
 C    -4.440876520000000    0.415489973000000    3.432598914000000
 N    -5.127770917000000    1.502338038000000    3.593835483000000
 H    -4.708350736000000    -0.507372009000000    3.979650727000000
 N    -6.172389644999999    1.288283983000000    4.490421925000000
 C    -6.870932242000000    2.366875380000000    4.653314563000000
 C    -8.054049988999999    2.411501931000000    5.533896083000000
 H    -6.603753881000000    3.300964199000000    4.125888187000000
 C    -8.764520100000000    3.610352537999999    5.646213489000000
 C    -9.896796668000000    3.671159341000000    6.461051061000000
 H    -8.449032887000000    4.497587633000000    5.103850596000000
 C    -10.316184239000000    2.538879727000000    7.160823231000000
 H    -10.454290107000000    4.600387513000000    6.549362416000000
 C    -9.604707153000000    1.343655876000000    7.050251690000001
 H    -11.199730445000000    2.587307240000000    7.792864569000000
 C    -8.472190146999999    1.277501143000000    6.236823266000000
 H    -9.932863619999999    0.462232240000000    7.595459256000000
 H    -7.923709313000000    0.342491719000000    6.152328988000000
 C    0.413026158000000    4.447106809000000    -3.424821733000000
 N    1.516121612000000    5.092921442000000    -3.637339358000001
 H    -0.524528637000000    4.751730064000000    -3.925499332000000
 N    1.304994747000000    6.130138900000000    -4.543164984000000
 C    2.403576710000000    6.778137520000000    -4.769153106000000
 C    2.467496554000000    7.912474116000000    -5.710629441000000
 H    3.344012281000000    6.494912210000000    -4.261758643000000
 C    3.694350145000000    8.552141745000000    -5.911331569000000
 C    3.781684959000000    9.617344987000001    -6.809898566000000
 H    4.584688332000000    8.228808822000000    -5.378762761000000
 C    2.647560825000000    10.041396074000000    -7.503849049000000
 H    4.734145898000000    10.116096921000000    -6.971538584000000
 C    1.422987591000000    9.404125690000001    -7.300643206000000
 H    2.717957803000000    10.869394777000000    -8.205231818000000
 C    1.330338541000000    8.338596817000001    -6.403591705000000
 H    0.540447970000000    9.735103684000000    -7.842328508000000
 H    0.374000268000000    7.844043645000000    -6.251778012000000
 C    4.440876068000000    -0.415489889000000    3.432599497000000
 N    5.127769477000000    -1.502338347000000    3.593837628000000
 H    4.708350834000000    0.507372506000000    3.979650343000000
 N    6.172388008000000    -1.288284127000000    4.490424260000000
 C    6.870929624000000    -2.366875925000000    4.653318456000000
 C    8.054046960999999    -2.411502446000000    5.533900527000000
 H    6.603750694000000    -3.300965135000000    4.125893060000000
 C    8.764516009999999    -3.610353523000000    5.646219635000000
 C    9.896792182999999    -3.671160331000000    6.461057756000000
 H    8.449028275000000    -4.497588986000000    5.103857647000000
 C    10.316180417000000    -2.538880253000000    7.160828779000000
 H    10.454284798000000    -4.600388872000000    6.549370434000000
 C    9.604704389000000    -1.343655929000000    7.050255539000000
 H    11.199726314999999    -2.587307775000000    7.792870546000000
 C    8.472187782000002    -1.277501190000000    6.236826559000000
 H    9.932861372000000    -0.462231933000000    7.595462211000000
 H    7.923707775000000    -0.342491401000000    6.152330955000000




