%nproc=15
%mem=70GB
%chk=3_Phenyl_PrimaryAmine_Imine_freq.chk
#P B3LYP/6-311++G(d,p) EmpiricalDispersion=GD3 freq(noraman) SCF=YQC

Restart from 3_Phenyl_PrimaryAmine_Imine.log

0 1
 C  -1.114564   0.850160  -0.430343
 C   0.177161   1.387296  -0.445632
 C   1.293588   0.540452  -0.429778
 C   1.112858  -0.846786  -0.445005
 C  -0.178742  -1.390238  -0.429607
 C  -1.289757  -0.540109  -0.445736
 H   1.960454  -1.517403  -0.510725
 H  -2.294291  -0.938826  -0.512099
 H   0.334058   2.456634  -0.511763
 N  -2.269362   1.650825  -0.471570
 C  -2.332983   2.716469   0.227538
 C  -3.481956   3.629253   0.185944
 C  -3.485051   4.763920   1.008300
 C  -4.560223   5.649383   0.990558
 C  -5.644075   5.407789   0.148791
 C  -5.649254   4.278038  -0.675294
 C  -4.578140   3.394843  -0.659695
 H  -1.523987   3.000751   0.915127
 H  -2.640075   4.951694   1.663394
 H  -4.552020   6.524331   1.630510
 H  -6.482383   6.095237   0.132160
 H  -6.492602   4.091482  -1.330743
 H  -4.567119   2.516586  -1.293494
 N  -0.294450  -2.790722  -0.470095
 C  -1.186712  -3.378485   0.227638
 C  -1.402514  -4.829937   0.186109
 C  -2.386738  -5.399475   1.005070
 C  -2.616110  -6.773306   0.987029
 C  -1.861841  -7.591632   0.148519
 C  -0.877632  -7.031742  -0.672052
 C  -0.648277  -5.662548  -0.656252
 H  -1.838743  -2.819912   0.913866
 H  -2.974248  -4.761227   1.657650
 H  -3.380431  -7.203295   1.624261
 H  -2.038080  -8.661343   0.131738
 H  -0.291937  -7.669196  -1.324942
 H   0.109232  -5.214265  -1.287422
 N   2.564355   1.140295  -0.470759
 C   3.519322   0.662212   0.227728
 C   4.884314   1.200779   0.185659
 C   5.869200   0.634846   1.006310
 C   7.173735   1.122901   0.987829
 C   7.505852   2.183330   0.147074
 C   6.529342   2.754022  -0.675252
 C   5.228811   2.268315  -0.658954
 H   3.361366  -0.180900   0.914954
 H   5.609799  -0.191608   1.660582
 H   7.927908   0.677284   1.626412
 H   8.520436   2.565355   0.129884
 H   6.788986   3.578447  -1.329897
 H   4.462196   2.698881  -1.291462






