46
	Energy:    2589.2621574
Si         0.53671        2.35322        0.16176
O          2.11939        2.14089        0.21350
H          0.08595        2.74923       -1.17975
O          0.17790        3.45287        1.26373
O         -0.13749        0.98134        0.62733
B          0.19664        3.66747        2.58739
O          0.87058        2.81187        3.37009
B          3.11655        1.79737        1.04240
O          2.82735        1.51439        2.32177
B         -0.04871        0.03763        1.57520
O          0.57289        0.34280        2.72272
Si         1.60437        1.39265        3.34426
H          2.05496        0.98090        4.68114
C          4.59934        1.71657        0.51760
C          4.89306        2.01014       -0.82518
C          6.20997        1.93793       -1.29008
H          4.10870        2.29506       -1.51615
C          5.64216        1.35046        1.38579
C          7.24119        1.57312       -0.42082
H          6.43088        2.16500       -2.32506
C          6.95748        1.27976        0.91554
H          5.44408        1.11897        2.42545
H          8.25972        1.51781       -0.78276
H          7.75737        0.99728        1.58777
C         -0.60093        4.87222        3.21483
C         -1.30878        5.76173        2.38827
C         -0.61184        5.06965        4.60636
C         -2.01529        6.83153        2.94703
H         -1.31673        5.63368        1.31247
C         -2.02178        7.02067        4.33137
H         -2.55803        7.51435        2.30615
C         -1.32106        6.14048        5.15998
H         -0.07530        4.39913        5.26685
H         -2.56955        7.84904        4.76176
H         -1.32723        6.28802        6.23224
C         -0.97869       -1.12511        1.52118
C         -1.57509       -1.45169        0.29119
C         -2.01541       -2.75642        0.04656
H         -1.70178       -0.70246       -0.48105
C         -0.83014       -2.12266        2.50014
C         -1.27236       -3.42576        2.25031
H         -0.37390       -1.89861        3.45691
C         -1.86437       -3.74244        1.02497
H         -2.47409       -3.00310       -0.90227
H         -2.20595       -4.75151        0.83366
H         -1.15595       -4.19054        3.00738
