%nproc=15
%mem=70GB
%chk=Adamantane_Aldehyde_Azine_freq.chk
#P B3LYP/6-311++G(d,p) EmpiricalDispersion=GD3 freq(noraman) SCF=YQC

Restart from Adamantane_Aldehyde_Azine.log

0 1
 C   0.000000   1.777250   0.000062
 C   0.000000  -1.777401  -0.000062
 H  -0.625175  -2.425743  -0.623474
 H   0.625175  -2.425786   0.623304
 C  -0.907579   0.891639  -0.891684
 C   0.907579   0.891577   0.891746
 C   0.907645  -0.891717  -0.891691
 C  -0.907645  -0.891780   0.891628
 C  -1.788764  -0.000069  -0.000063
 C   1.788764  -0.000070   0.000063
 C   0.000065  -0.000016  -1.777325
 C  -0.000065  -0.000140   1.777325
 H  -2.445845   0.616398   0.616412
 H   2.445845   0.616441  -0.616368
 H  -0.625106  -0.623361  -2.425749
 H   0.625106  -0.623530   2.425706
 H  -2.445800  -0.616533  -0.616584
 H   2.445800  -0.616577   0.616541
 H   0.625271   0.623382  -2.425670
 H  -0.625271   0.623213   2.425714
 H   0.625215   2.425655  -0.623262
 H  -0.625215   2.425612   0.623432
 C  -1.706983   1.790198  -1.790215
 N  -2.982688   1.798938  -1.798965
 H  -1.147004   2.456557  -2.456532
 N  -3.511813   2.716362  -2.716349
 C  -4.793313   2.717939  -2.717713
 C  -5.577145   3.592258  -3.591935
 H  -5.338904   2.047388  -2.047050
 C  -6.976776   3.533401  -3.532769
 C  -7.756799   4.349360  -4.348633
 H  -7.453151   2.843971  -2.843174
 C  -7.145054   5.234442  -5.233932
 H  -8.838041   4.294413  -4.293444
 C  -5.749980   5.300438  -5.300240
 H  -7.749443   5.870985  -5.870404
 C  -4.970009   4.488262  -4.488155
 H  -5.273953   5.989204  -5.989176
 H  -3.888880   4.531456  -4.531588
 C   1.706984   1.790071   1.790342
 N   2.982688   1.798808   1.799094
 H   1.147004   2.456383   2.456706
 N   3.511813   2.716165   2.716547
 C   4.793313   2.717735   2.717917
 C   5.577146   3.591985   3.592207
 H   5.338904   2.047230   2.047209
 C   6.976777   3.533125   3.533045
 C   7.756800   4.349019   4.348974
 H   7.453151   2.843743   2.843401
 C   7.145054   5.234039   5.234335
 H   8.838041   4.294071   4.293786
 C   5.749980   5.300038   5.300640
 H   7.749443   5.870532   5.870857
 C   4.970009   4.487926   4.488491
 H   5.273953   5.988755   5.989625
 H   3.888880   4.531123   4.531921
 C   1.707120  -1.790230  -1.790208
 N   2.982826  -1.798927  -1.798888
 H   1.147206  -2.456599  -2.456570
 N   3.512044  -2.716311  -2.716260
 C   4.793545  -2.717668  -2.717729
 C   5.577458  -3.591892  -3.591977
 H   5.339079  -2.046986  -2.047153
 C   6.977082  -3.532748  -3.532969
 C   7.757180  -4.348616  -4.348854
 H   7.453396  -2.843169  -2.843480
 C   7.145516  -5.233892  -5.234014
 H   8.838416  -4.293444  -4.293788
 C   5.750448  -5.300175  -5.300162
 H   7.749962  -5.870366  -5.870501
 C   4.970403  -4.488089  -4.488059
 H   5.274484  -5.989093  -5.988990
 H   3.889277  -4.531503  -4.531371
 C  -1.707120  -1.790356   1.790082
 N  -2.982826  -1.799057   1.798759
 H  -1.147206  -2.456772   2.456396
 N  -3.512044  -2.716509   2.716062
 C  -4.793545  -2.717872   2.717525
 C  -5.577458  -3.592164   3.591704
 H  -5.339079  -2.047144   2.046995
 C  -6.977082  -3.533024   3.532693
 C  -7.757181  -4.348956   4.348514
 H  -7.453396  -2.843396   2.843253
 C  -7.145517  -5.234295   5.233611
 H  -8.838417  -4.293786   4.293446
 C  -5.750448  -5.300575   5.299762
 H  -7.749963  -5.870819   5.870048
 C  -4.970403  -4.488424   4.487724
 H  -5.274484  -5.989542   5.988541
 H  -3.889277  -4.531837   4.531038






