%nproc=15
%mem=70GB
%chk=DBA12_Cyanohydrine_Benzobisoxazole.chk
#P B3LYP/6-311++G(d,p) EmpiricalDispersion=GD3 opt SCF=YQC

Comment

0 1
 C    2.750545300000000    0.714052633000000    0.000000000000000
 C    3.967385300000000    1.427232633000000    0.000000000000000
 C    5.134923300000000    0.697167633000000    0.000000000000000
 C    5.134905300000000    -0.697294367000000    0.000000000000000
 C    3.967338300000000    -1.427295367000000    0.000000000000000
 C    2.750523300000000    -0.714054367000000    0.000000000000000
 H    3.973029300000000    2.508793633000000    0.000000000000000
 H    3.972857300000000    -2.508858367000000    0.000000000000000
 C    1.523744300000000    -1.428965367000000    0.000000000000000
 C    0.475695300000000    -2.034128367000000    0.000000000000000
 C    -0.756889700000000    -2.739018366999999    0.000000000000000
 C    -0.747637700000000    -4.149421367000000    0.000000000000000
 C    -1.963640700000000    -4.795554367000000    0.000000000000000
 C    -3.171301700000000    -4.098371367000000    0.000000000000000
 C    -3.219770700000000    -2.722223367000000    0.000000000000000
 C    -1.993726700000000    -2.024989367000000    0.000000000000000
 H    0.186211300000000    -4.695066367000000    0.000000000000000
 H    -4.159213700000000    -2.186260367000000    0.000000000000000
 C    -1.999634700000000    -0.605105367000000    0.000000000000000
 C    1.523820300000000    1.429081633000000    0.000000000000000
 C    0.475673300000000    2.034067633000000    0.000000000000000
 C    -0.756847700000000    2.739067633000000    0.000000000000000
 C    -0.747585700000000    4.149487633000000    0.000000000000000
 C    -1.963575700000000    4.795616633000000    0.000000000000000
 C    -3.171234700000000    4.098376633000000    0.000000000000000
 C    -3.219715700000000    2.722243633000000    0.000000000000000
 C    -1.993596700000000    2.025034633000000    0.000000000000000
 H    0.186303300000000    4.695069633000000    0.000000000000000
 H    -4.159103700000000    2.186199633000000    0.000000000000000
 C    -1.999479700000000    0.605114633000000    0.000000000000000
 N    6.463677247000000    1.111141804000000    0.064989441000000
 O    6.393366371000000    -1.154304831000000    -0.022003196000000
 C    7.158433472000000    -0.013933341000000    0.030920069000000
 C    9.337760365999999    -1.250517516000000    -0.032420345000000
 C    10.735800379000001    -1.249043926000000    -0.038546109000000
 H    8.815122752000001    -2.203469204000000    -0.081511553000000
 C    11.433216870999999    -0.044333215000000    0.021256462000000
 H    11.278780728999999    -2.189366044000000    -0.091450314000000
 C    10.735710054000000    1.159421150000000    0.088568927000000
 H    12.520233556000001    -0.043484906000000    0.014871726000000
 C    9.338489940000001    1.157217740000000    0.094243010000000
 H    11.276218857000000    2.101352602000000    0.135334292000000
 H    8.806205608000001    2.106044155000000    0.145564429000000
 C    8.619518613000000    -0.046671881000000    0.032608119000000
 N    -2.269504311000000    -6.153305046999999    0.064989441000000
 O    -4.196294721000000    -4.959709306000000    -0.022003196000000
 C    -3.591225704000001    -6.192456761000000    0.030920069000000
 C    -5.751790222000000    -7.461537962000000    -0.032420345000000
 C    -6.449522379000000    -8.673019652000001    -0.038546109000000
 H    -6.315760745000001    -6.532450105000000    -0.081511553000000
 C    -5.754908912000000    -9.879348708000000    0.021256462000000
 H    -7.535355395000000    -8.673103841000000    -0.091450314000000
 C    -4.363673665000000    -9.877153850999999    0.088568927000000
 H    -6.297673515000000    -10.821162160000000    0.014871726000000
 C    -3.666983497000000    -8.666017314999999    0.094243010000000
 H    -3.818182445000000    -10.816208672000000    0.135334292000000
 H    -2.579133421000000    -8.679448278000001    0.145564429000000
 C    -4.350108637000000    -7.441431658000000    0.032608119000000
 N    -4.194118949000000    5.042135509000000    0.064989441000000
 O    -2.197029837000000    6.113969057000000    -0.022003196000000
 C    -3.567154124000000    6.206350010000000    0.030920069000000
 C    -3.585905812000000    8.711994539000001    -0.032420345000000
 C    -4.286202733000000    9.921995477999999    -0.038546109000000
 H    -2.499306649000000    8.735853605000001    -0.081511553000000
 C    -5.678221059000000    9.923619660000000    0.021256462000000
 H    -3.743350647000000    10.862391648999999    -0.091450314000000
 C    -6.371948765000000    8.717683426000001    0.088568927000000
 H    -6.222464641000000    10.864579233000001    0.014871726000000
 C    -5.671429751000000    7.508757451000000    0.094243010000000
 H    -7.457939731000000    8.714811383000001    0.135334292000000
 H    -6.226994785999999    6.573372146000000    0.145564429000000
 C    -4.269345080000000    7.488055695000000    0.032608119000000




