%nproc=15
%mem=70GB
%chk=DBA12_Cyanohydrine_Benzobisoxazole_freq.chk
#P B3LYP/6-311++G(d,p) EmpiricalDispersion=GD3 freq(noraman) SCF=YQC

Restart from DBA12_Cyanohydrine_Benzobisoxazole.log

0 1
 C  -2.716794   0.842933   0.000056
 C  -4.118230   0.875034  -0.000122
 C  -4.749391   2.114673  -0.000072
 C  -3.983409   3.288016   0.000115
 C  -2.605061   3.307537   0.000260
 C  -1.955620   2.060827   0.000164
 H  -4.689935  -0.043376  -0.000261
 H  -2.039164   4.229006   0.000405
 C  -0.539206   2.013277   0.000424
 C   0.669772   1.974595   0.000192
 C   2.088323   1.931773   0.000194
 C   2.817058   3.129290   0.000130
 C   4.206186   3.055852   0.000068
 C   4.839124   1.805723   0.000027
 C   4.166667   0.602391   0.000043
 C   2.762274   0.663521   0.000065
 H   2.307708   4.083693   0.000171
 H   4.681591  -0.348502   0.000001
 C   2.012770  -0.539287   0.000150
 C  -2.044454  -0.406896  -0.000076
 C  -1.473563  -1.473297   0.000222
 C  -0.806689  -2.723798   0.000055
 C  -1.561772  -3.909502   0.000155
 C  -0.855796  -5.093491   0.000061
 C   0.543332  -5.170298  -0.000096
 C   1.301430  -4.003940  -0.000163
 C   0.628612  -2.774155  -0.000028
 H  -2.642736  -3.880035   0.000267
 H   2.382647  -4.039945  -0.000285
 C   1.374853  -1.566999  -0.000210
 N  -6.093760   2.461898  -0.000180
 O  -4.851541   4.345590   0.000131
 C  -6.104930   3.759929  -0.000038
 C  -7.101424   6.041015   0.000035
 C  -8.220822   6.867257  -0.000003
 H  -6.106430   6.467319   0.000144
 C  -9.501199   6.314691  -0.000144
 H  -8.093450   7.943630   0.000078
 C  -9.661257   4.927433  -0.000249
 H  -10.371281   6.961357  -0.000172
 C  -8.549428   4.094695  -0.000214
 H  -10.655520   4.495797  -0.000358
 H  -8.659535   3.017550  -0.000296
 C  -7.259645   4.647835  -0.000070
 N   5.179252   4.046333   0.000037
 O   6.189108   2.028520  -0.000028
 C   6.308855   3.406791   0.000000
 C   8.782544   3.128752  -0.000102
 C   10.057908   3.684787  -0.000144
 H   8.654036   2.053931  -0.000114
 C   10.219854   5.069876  -0.000128
 H   10.926247   3.036104  -0.000189
 C   9.098637   5.902323  -0.000071
 H   11.215007   5.499863  -0.000161
 C   7.821432   5.356095  -0.000032
 H   9.222175   6.979173  -0.000059
 H   6.943795   5.990221   0.000011
 C   7.655278   3.962573  -0.000044
 N   0.914689  -6.508203  -0.000165
 O  -1.337729  -6.374054   0.000098
 C  -0.203911  -7.166794  -0.000026
 C  -1.681359  -9.170168   0.000097
 C  -1.837393  -10.552697   0.000095
 H  -2.547969  -8.521526   0.000188
 C  -0.718757  -11.385371  -0.000023
 H  -2.833298  -10.980454   0.000187
 C   0.562732  -10.830494  -0.000140
 H  -0.843854  -12.462205  -0.000023
 C   0.728175  -9.451272  -0.000142
 H   1.433590  -11.475840  -0.000232
 H   1.716122  -9.008185  -0.000234
 C  -0.395662  -8.610739  -0.000021






