%nproc=15
%mem=70GB
%chk=ExtendedTrisPhenyl_Aldehyde_Imine_freq.chk
#P B3LYP/6-311++G(d,p) EmpiricalDispersion=GD3 freq(noraman) SCF=YQC

Restart from ExtendedTrisPhenyl_Aldehyde_Imine.log

0 1
 C  -1.400272  -2.456040  -0.032055
 C  -0.695083  -1.221097  -0.032337
 C   0.708099  -1.207843  -0.032203
 H   1.253463  -2.142497  -0.032073
 C   1.409906   0.007251  -0.032285
 C   2.831987   0.013670  -0.031899
 C   0.696870   1.215875  -0.032523
 H   1.233624   2.155510  -0.032532
 C  -0.706339   1.216076  -0.032639
 C  -1.423223   2.444266  -0.032614
 C  -1.396494  -0.005752  -0.032609
 H  -2.478617  -0.010708  -0.032800
 C  -2.033827   3.489149  -0.032386
 C  -2.752704   4.713226  -0.031113
 C   4.042194   0.018964  -0.031460
 C   5.461724   0.028172  -0.030421
 C  -2.000525  -3.506906  -0.031751
 C  -2.703412  -4.740240  -0.030219
 C  -2.073146   5.944293  -0.028307
 C  -2.785092   7.135457  -0.026852
 H  -0.990085   5.952810  -0.027507
 C  -4.187283   7.137376  -0.027798
 H  -2.248772   8.079024  -0.025363
 C  -4.866830   5.907290  -0.030115
 C  -4.164041   4.716062  -0.032567
 H  -5.949822   5.911968  -0.030367
 H  -4.692099   3.770139  -0.034666
 C  -2.002544  -5.965265  -0.031749
 C  -2.685095  -7.168196  -0.029248
 H  -0.919292  -5.951688  -0.034058
 C  -4.090218  -7.192067  -0.026759
 H  -2.149479  -8.109469  -0.029663
 C  -4.787301  -5.975419  -0.025724
 C  -4.109369  -4.764586  -0.027225
 H  -5.872621  -5.980592  -0.024167
 H  -4.656479  -3.829840  -0.026380
 C   6.186755  -1.176680  -0.024813
 C   7.574310  -1.157224  -0.023380
 H   5.651531  -2.118289  -0.021705
 C   8.278459   0.055362  -0.027174
 H   8.122228  -2.094084  -0.019585
 C   7.554256   1.259698  -0.032375
 C   6.171217   1.248198  -0.034721
 H   8.100807   2.194669  -0.034787
 H   5.617113   2.179092  -0.038934
 C  -8.199919   12.179461   0.087585
 C  -8.634695   11.150154  -0.749506
 C  -7.085081   11.979888   0.900857
 C  -6.395338   10.770662   0.867073
 C  -6.818861   9.738639   0.013798
 C  -7.962469   9.933348  -0.774724
 C  -4.906512   8.414288  -0.025330
 N  -6.181035   8.488751  -0.050822
 H  -9.507792   11.293355  -1.376337
 H  -6.755845   12.765079   1.572544
 H  -5.549628   10.608788   1.525719
 H  -8.298695   9.121390  -1.408655
 H  -4.276772   9.314939  -0.015677
 H  -8.734888   13.121621   0.117366
 C  -6.462524  -13.183455   0.085612
 C  -5.352647  -13.047383  -0.750371
 C  -6.845592  -12.117669   0.898902
 C  -6.140623  -10.917231   0.866182
 C  -5.034045  -10.769978   0.013926
 C  -4.632408  -11.858336  -0.774536
 C  -4.838831  -8.452001  -0.024587
 N  -4.268231  -9.594103  -0.049894
 H  -5.041268  -13.875554  -1.377189
 H  -7.691086  -12.223546   1.569734
 H  -6.422241  -10.103567   1.524871
 H  -3.760337  -11.745179  -1.407683
 H  -5.933527  -8.354873  -0.015817
 H  -7.012996  -14.116670   0.114520
 C   14.652329   1.001863   0.087733
 C   13.979754   1.891499  -0.752152
 C   13.920692   0.139428   0.903212
 C   12.528619   0.148449   0.868948
 C   11.848056   1.029734   0.012974
 C   12.589894   1.919524  -0.777892
 C   9.743897   0.038152  -0.024454
 N   10.446835   1.103847  -0.052281
 H   14.541417   2.573482  -1.380771
 H   14.434956  -0.537131   1.576922
 H   11.964544  -0.500550   1.529162
 H   12.055977   2.615567  -1.414011
 H   10.207928  -0.958027  -0.012547
 H   15.735729   0.992718   0.117852






