%nproc=15
%mem=70GB
%chk=BiPhenyl_BoronicAcid_Boroxine.chk
#P B3LYP/6-311++G(d,p) EmpiricalDispersion=GD3 opt SCF=YQC

Comment

0 1
 C    -0.000000000000000    3.577958000000000    -0.000000182000000
 C    1.133739000000000    2.852350000000000    -0.402520182000000
 C    1.135339000000000    1.463226000000000    -0.401762182000000
 C    -0.000000000000000    0.741600000000000    -0.000000182000000
 C    -1.135339000000000    1.463225000000000    0.401761818000000
 C    -1.133738000000000    2.852349000000000    0.402519818000000
 C    -0.000000000000000    -0.741600000000000    -0.000000182000000
 C    -1.135339000000000    -1.463226000000000    -0.401762182000000
 C    -1.133739000000000    -2.852350000000000    -0.402520182000000
 C    -0.000000000000000    -3.577958000000000    -0.000000182000000
 C    1.133738000000000    -2.852349000000000    0.402519818000000
 C    1.135339000000000    -1.463225000000000    0.401761818000000
 H    -2.020512000000000    -3.385811000000000    -0.727052182000000
 H    -2.020512000000000    3.385812000000000    0.727052818000000
 H    2.020512000000000    -3.385812000000000    0.727052818000000
 H    2.020512000000000    3.385811000000000    -0.727052182000000
 H    -2.015826000000000    -0.929067000000000    -0.740072182000000
 H    -2.015827000000000    0.929068000000000    0.740072818000000
 H    2.015826000000000    0.929067000000000    -0.740072182000000
 H    2.015827000000000    -0.929068000000000    0.740072818000000
 B    0.000010262000000    5.126507002000000    -0.000024136000000
 O    1.122692381000000    5.836042642000000    -0.397136235000000
 B    1.128540533000000    7.210106565000000    -0.399112928000000
 O    -1.122515675000000    5.836072347000000    0.397472035000000
 B    -1.128275244000000    7.210136419000000    0.399596755000000
 O    0.000139936000000    7.893850993000000    0.000236316000000
 H    2.095935068000000    7.803726182000001    -0.740977715000000
 H    -2.095339421000000    7.803780769000000    0.742352168000000
 B    0.000010262000000    -5.126507002000000    0.000023615000000
 O    1.122692404000000    -5.836042682000000    0.397135577000000
 B    1.128540556000000    -7.210106606000000    0.399112130000000
 O    -1.122515698000000    -5.836072307000000    -0.397472564000000
 B    -1.128275267000000    -7.210136378000000    -0.399597423000000
 O    0.000139936000000    -7.893850993000000    -0.000237119000000
 H    2.095935111000000    -7.803726258000000    0.740976801000000
 H    -2.095339464000000    -7.803780693000000    -0.742352841000000




