%nproc=15
%mem=70GB
%chk=BiPhenyl_BoronicAcid_Boroxine_freq.chk
#P B3LYP/6-311++G(d,p) EmpiricalDispersion=GD3 freq(noraman) SCF=YQC

Restart from BiPhenyl_BoronicAcid_Boroxine.log

0 1
 C  -3.572579   0.000057   0.000325
 C  -2.848986   1.130533  -0.414164
 C  -1.460055   1.132909  -0.413672
 C  -0.740939   0.000054   0.000067
 C  -1.459982  -1.132800   0.413938
 C  -2.848914  -1.130423   0.414677
 C   0.740939   0.000054  -0.000067
 C   1.459982  -1.132800  -0.413938
 C   2.848914  -1.130423  -0.414677
 C   3.572579   0.000057  -0.000325
 C   2.848987   1.130533   0.414164
 C   1.460055   1.132909   0.413672
 H   3.388074  -2.010652  -0.746983
 H  -3.388074  -2.010652   0.746983
 H   3.388206   2.010768   0.746360
 H  -3.388206   2.010768  -0.746360
 H   0.923070  -2.008323  -0.760680
 H  -0.923070  -2.008323   0.760680
 H  -0.923203   2.008433  -0.760505
 H   0.923203   2.008433   0.760505
 B  -5.116062   0.000066   0.000488
 O  -5.827936   1.117032  -0.413919
 B  -7.201114   1.121995  -0.416058
 O  -5.827862  -1.117034   0.414656
 B  -7.201041  -1.122144   0.416642
 O  -7.885514  -0.000173   0.000087
 H  -7.795555   2.083648  -0.773258
 H  -7.795418  -2.084034   0.773308
 B   5.116062   0.000066  -0.000488
 O   5.827936   1.117032   0.413919
 B   7.201115   1.121994   0.416058
 O   5.827862  -1.117034  -0.414656
 B   7.201041  -1.122144  -0.416642
 O   7.885514  -0.000173  -0.000087
 H   7.795555   2.083648   0.773258
 H   7.795418  -2.084034  -0.773308






