%nproc=15
%mem=70GB
%chk=F_PrimaryAmine_Imine.chk
#P B3LYP/6-311++G(d,p) EmpiricalDispersion=GD3 opt SCF=YQC NoSymm

Comment

0 1
 F    1.342850000000000    -2.363239000000000    -0.181050000000000
 C    0.684160000000000    -1.200169000000000    -0.092040000000000
 C    -0.709070000000000    -1.188689000000000    -0.034700000000000
 F    -1.391880000000000    -2.340709000000000    -0.068500000000000
 C    -1.404610000000000    0.011571000000000    0.057810000000000
 C    -0.684160000000000    1.200171000000000    0.092040000000000
 F    -1.342850000000000    2.363241000000000    0.181050000000000
 C    0.709070000000000    1.188691000000000    0.034700000000000
 F    1.391880000000000    2.340711000000000    0.068500000000000
 C    1.404610000000000    -0.011579000000000    -0.057810000000000
 N    -2.804926648000000    -0.018710286000000    0.058977018000000
 C    -3.463789441000000    0.675557419000000    0.904155753000000
 C    -4.929305515000000    0.740678760000000    0.913262040000000
 C    -5.574161945000000    1.506388591000000    1.894109481000000
 C    -6.964055139000000    1.589951363000000    1.927108993000000
 C    -7.722618334000000    0.907192846000000    0.978290472000000
 C    -7.087401414000000    0.140337785000000    -0.003532674000000
 C    -5.702167212000000    0.056277005000000    -0.038746536000000
 H    -2.956497471000000    1.254966853000000    1.688355317000000
 H    -4.982361002000000    2.037395243000000    2.633119380000000
 H    -7.453098574000000    2.185008382000000    2.689830534000000
 H    -8.804776874000000    0.970121160000000    1.001260044000000
 H    -7.678929813000000    -0.390356022000000    -0.741070290000000
 H    -5.196009748000000    -0.533375458000000    -0.793216882000000
 N    2.804926648000000    0.018710286000000    -0.058977018000000
 C    3.463789441000000    -0.675557419000000    -0.904155753000000
 C    4.929305515000000    -0.740678760000000    -0.913262040000000
 C    5.574161945000000    -1.506388591000000    -1.894109481000000
 C    6.964055139000000    -1.589951363000000    -1.927108993000000
 C    7.722618334000000    -0.907192846000000    -0.978290472000000
 C    7.087401414000000    -0.140337785000000    0.003532674000000
 C    5.702167212000000    -0.056277005000000    0.038746536000000
 H    2.956497471000000    -1.254966853000000    -1.688355317000000
 H    4.982361002000000    -2.037395243000000    -2.633119380000000
 H    7.453098574000000    -2.185008382000000    -2.689830534000000
 H    8.804776874000000    -0.970121160000000    -1.001260044000000
 H    7.678929813000000    0.390356022000000    0.741070290000000
 H    5.196009748000000    0.533375458000000    0.793216882000000




