%nproc=15
%mem=70GB
%chk=F_PrimaryAmine_Imine_freq.chk
#P B3LYP/6-311++G(d,p) EmpiricalDispersion=GD3 freq(noraman) SCF=YQC NoSymm

Restart from F_PrimaryAmine_Imine.log

0 1
 F   1.230491  -2.388163  -0.443476
 C   0.639231  -1.192362  -0.248900
 C  -0.739767  -1.155140  -0.128778
 F  -1.426502  -2.300244  -0.247689
 C  -1.431614   0.038409   0.127393
 C  -0.639231   1.192362   0.248900
 F  -1.230491   2.388163   0.443476
 C   0.739767   1.155140   0.128779
 F   1.426502   2.300244   0.247689
 C   1.431614  -0.038409  -0.127393
 N  -2.821473   0.018124   0.132755
 C  -3.494215   0.726963   0.959971
 C  -4.957539   0.766143   0.943390
 C  -5.627542   1.571619   1.874927
 C  -7.018515   1.632527   1.884856
 C  -7.751388   0.886856   0.963416
 C  -7.090743   0.079470   0.031892
 C  -5.704385   0.017986   0.018356
 H  -3.011169   1.331099   1.735112
 H  -5.054533   2.152447   2.590673
 H  -7.528450   2.258992   2.607526
 H  -8.834663   0.931860   0.969012
 H  -7.663562  -0.500811  -0.682529
 H  -5.178192  -0.603540  -0.695650
 N   2.821473  -0.018124  -0.132755
 C   3.494215  -0.726963  -0.959971
 C   4.957539  -0.766143  -0.943390
 C   5.627541  -1.571620  -1.874927
 C   7.018515  -1.632527  -1.884856
 C   7.751388  -0.886856  -0.963417
 C   7.090743  -0.079470  -0.031892
 C   5.704385  -0.017986  -0.018356
 H   3.011169  -1.331099  -1.735112
 H   5.054533  -2.152447  -2.590673
 H   7.528450  -2.258992  -2.607526
 H   8.834663  -0.931860  -0.969013
 H   7.663562   0.500811   0.682528
 H   5.178192   0.603540   0.695650






