%nproc=15
%mem=70GB
%chk=ETTA_PrimaryAmine_Ketoenamine_freq.chk
#P B3LYP/6-311++G(d,p) EmpiricalDispersion=GD3 freq(noraman) SCF=YQC NoSymm

Restart from ETTA_PrimaryAmine_Ketoenamine-1.log

0 1
 C  -0.685516  -0.058672   0.053483
 C   0.660983   0.071786  -0.135938
 C  -1.439621   0.787634   1.015744
 C  -0.973668   1.011137   2.319291
 H  -0.043271   0.553549   2.632360
 C  -1.677356   1.796796   3.221387
 H  -1.294786   1.913124   4.227480
 C  -2.880132   2.405661   2.836382
 C  -3.371558   2.168388   1.544311
 H  -4.305901   2.626285   1.237415
 C  -2.668382   1.364175   0.659937
 H  -3.069363   1.190431  -0.331970
 C   1.429467   1.236075   0.379236
 C   0.973843   2.552921   0.212593
 H   0.036087   2.728328  -0.299821
 C   1.699091   3.633017   0.689348
 H   1.332866   4.642513   0.535790
 C   2.915025   3.436018   1.361330
 C   3.384861   2.126743   1.531897
 H   4.306711   1.932548   2.065412
 C   2.657279   1.054424   1.031121
 H   3.041237   0.049586   1.165329
 C  -1.500480  -1.057771  -0.687745
 C  -2.445840  -1.850249  -0.021672
 H  -2.574616  -1.732953   1.048288
 C  -3.206077  -2.800240  -0.692220
 H  -3.893008  -3.417263  -0.126948
 C  -3.065375  -2.963579  -2.077013
 C  -2.140368  -2.158901  -2.759476
 H  -2.034118  -2.263505  -3.833980
 C  -1.374613  -1.228964  -2.074898
 H  -0.663894  -0.621572  -2.621404
 C   1.461774  -0.941713  -0.872655
 C   1.327553  -2.313265  -0.613735
 H   0.626331  -2.640673   0.143981
 C   2.075066  -3.261770  -1.297658
 H   1.961210  -4.307052  -1.039673
 C   2.982966  -2.862323  -2.288449
 C   3.147791  -1.491990  -2.537832
 H   3.854239  -1.169698  -3.295400
 C   2.409210  -0.553885  -1.832205
 H   2.555970   0.500104  -2.038209
 H  -7.676489   6.084857   4.762593
 C  -7.405971   6.259889   5.796402
 C  -8.207796   7.035672   6.625766
 H  -9.114852   7.483365   6.235280
 C  -7.848179   7.235996   7.959452
 H  -8.474963   7.837712   8.608194
 C  -6.682197   6.655803   8.456591
 H  -6.403938   6.798422   9.494723
 C  -5.872723   5.888343   7.622441
 H  -4.979582   5.432816   8.031529
 C  -6.223668   5.683376   6.281201
 C  -5.405617   4.853115   5.335829
 O  -5.929345   4.453202   4.278756
 C  -4.026654   4.553655   5.658246
 C  -3.230759   3.784421   4.850790
 H  -3.571794   4.971501   6.543508
 N  -3.629848   3.224635   3.688661
 H  -2.198778   3.612592   5.134682
 H  -4.589541   3.469609   3.431120
 H   4.058599   9.564136   2.539247
 C   4.953883   9.499527   3.144932
 C   5.563873   10.643447   3.646886
 H   5.147208   11.619436   3.424490
 C   6.708688   10.536553   4.438165
 H   7.182957   11.427997   4.833348
 C   7.238198   9.278880   4.723098
 H   8.120519   9.189124   5.346748
 C   6.633689   8.133485   4.210590
 H   7.050890   7.165048   4.456764
 C   5.485451   8.230248   3.412805
 C   4.776179   7.035765   2.844917
 O   3.611705   7.171248   2.424188
 C   5.461297   5.762352   2.778335
 C   4.864906   4.628175   2.293126
 H   6.493429   5.682964   3.084272
 N   3.597687   4.564123   1.831938
 H   5.436062   3.707801   2.253063
 H   3.120647   5.469522   1.836003
 H  -5.027982  -6.214185  -7.158014
 C  -5.688387  -6.941262  -6.702186
 C  -6.348575  -7.891940  -7.472207
 H  -6.211820  -7.905378  -8.547726
 C  -7.183635  -8.829557  -6.862529
 H  -7.695992  -9.573910  -7.461863
 C  -7.353365  -8.809145  -5.479024
 H  -7.991714  -9.542209  -4.998804
 C  -6.700926  -7.849391  -4.708819
 H  -6.833150  -7.860476  -3.634147
 C  -5.862406  -6.901884  -5.311653
 C  -5.116985  -5.853650  -4.538402
 O  -4.166928  -5.263486  -5.086597
 C  -5.526319  -5.535822  -3.186786
 C  -4.875840  -4.606513  -2.418139
 H  -6.394742  -6.010039  -2.755366
 N  -3.800958  -3.895059  -2.819454
 H  -5.240574  -4.400642  -1.418418
 H  -3.531254  -4.084191  -3.788412
 H   7.290321  -4.886669  -6.485891
 C   7.270630  -5.954836  -6.309247
 C   8.091486  -6.815720  -7.028750
 H   8.757615  -6.419081  -7.786779
 C   8.060943  -8.187800  -6.774520
 H   8.703598  -8.859665  -7.332537
 C   7.204341  -8.691702  -5.796971
 H   7.184683  -9.755231  -5.587200
 C   6.373473  -7.830429  -5.084313
 H   5.726904  -8.239364  -4.317991
 C   6.394705  -6.451520  -5.333884
 C   5.538786  -5.468774  -4.589548
 O   5.834381  -4.259521  -4.632974
 C   4.381709  -5.939594  -3.858354
 C   3.571023  -5.100177  -3.140573
 H   4.102124  -6.981557  -3.894535
 N   3.752714  -3.766833  -3.029192
 H   2.705815  -5.508737  -2.631035
 H   4.541343  -3.418990  -3.580844






