%nproc=15
%mem=70GB
%chk=ETTA_PrimaryAmine_Ketoenamine.chk
#P B3LYP/6-311++G(d,p) EmpiricalDispersion=GD3 opt SCF=YQC NoSymm

Comment

0 1
 C    -0.673043696000000    -0.061281087000000    0.099838696000000
 C    0.676216304000000    0.084438913000000    -0.077921304000000
 C    -1.445563696000000    0.859668913000000    0.987758696000000
 C    -1.208593696000000    0.910808913000000    2.368608696000000
 H    -0.435593696000000    0.291168913000000    2.815748696000000
 C    -1.956453696000000    1.762468913000000    3.184708696000000
 H    -1.756043696000000    1.803278913000000    4.251888696000000
 C    -2.958213696000000    2.558248913000000    2.631708696000000
 C    -3.215433696000000    2.502618913000000    1.263248696000000
 H    -4.001643696000000    3.116068913000000    0.831638696000000
 C    -2.465153696000000    1.655188913000000    0.445338696000000
 H    -2.681203696000000    1.618718913000000    -0.619611304000000
 C    1.423956304000000    1.217358913000000    0.545288696000000
 C    1.186576304000000    2.544388913000000    0.160958696000000
 H    0.432056304000000    2.771628913000000    -0.587751304000000
 C    1.910456304000000    3.588888913000000    0.739918696000000
 H    1.711366304000000    4.615018913000000    0.443058696000000
 C    2.886286304000000    3.315958913000000    1.697168696000000
 C    3.142086304000000    1.999178913000000    2.075248696000000
 H    3.907026304000000    1.784298913000000    2.816488696000000
 C    2.417466304000000    0.953908913000000    1.499138696000000
 H    2.631376304000000    -0.068851087000000    1.799648696000000
 C    -1.412513696000000    -1.154241087000000    -0.600071304000000
 C    -1.922953696000000    -2.232601087000000    0.134698696000000
 H    -1.770443696000000    -2.283151087000000    1.209878696000000
 C    -2.626883696000000    -3.253351087000000    -0.507091304000000
 H    -3.013833696000000    -4.089711087000000    0.068518696000000
 C    -2.834543696000000    -3.198741087000000    -1.884751304000000
 C    -2.343603696000000    -2.122491087000001    -2.622201304000000
 H    -2.507323696000000    -2.077791087000000    -3.695421304000000
 C    -1.638713696000000    -1.101381087000000    -1.982691304000000
 H    -1.261323696000000    -0.266561087000000    -2.567421304000000
 C    1.439886304000000    -0.894691087000000    -0.907871304000000
 C    1.681336304000000    -2.196721087000000    -0.447761304000000
 H    1.299246304000000    -2.515401087000000    0.518518696000000
 C    2.406656304000000    -3.098111087000000    -1.228831304000000
 H    2.581246304000000    -4.108341087000000    -0.868861304000000
 C    2.903116304000000    -2.703191087000000    -2.470121304000000
 C    2.679966304000000    -1.406181087000000    -2.930431304000000
 H    3.069876304000000    -1.097111087000000    -3.896341304000000
 C    1.955636304000000    -0.502771087000000    -2.150401304000000
 H    1.790596304000000    0.507088913000000    -2.517471304000000
 H    -7.985165454000000    6.502276358999999    3.824452028000000
 C    -7.912964401000000    6.532743205000000    4.910631845000000
 C    -8.846601234999998    7.285432320000000    5.628745121000000
 H    -9.627944520000000    7.827026742000001    5.101097780000000
 C    -8.776340877000001    7.340112292000000    7.017914510000000
 H    -9.501412158000001    7.925654755000000    7.578004641000000
 C    -7.778296163000000    6.638146463000000    7.688791598000000
 H    -7.727101655000000    6.676388207000000    8.774701149000000
 C    -6.845205501000000    5.879860686000000    6.972431083000000
 H    -6.102795223000000    5.339906961000000    7.548472540000000
 C    -6.896421747000000    5.824411464000000    5.572098117000000
 C    -5.935853597000000    5.042004145000000    4.728632984000000
 O    -6.129603618000000    4.933683192000000    3.519509084000000
 C    -4.744912092000000    4.415083422000000    5.370428068000000
 C    -3.865893493000000    3.662290546000000    4.693334561000000
 H    -4.563146199000000    4.575278100000000    6.422091751000000
 N    -3.868687253000000    3.338471928000001    3.363390890000000
 H    -3.029887629000000    3.252331088000000    5.250795194000000
 H    -4.643347823000000    3.750995412000000    2.835580944000000
 H    5.488945596000000    9.247923589000001    2.232138620000000
 C    6.189672452000000    9.045030340000000    3.040683002000000
 C    6.990788257000000    10.086576443000000    3.517443425000000
 H    6.906790690000000    11.078921904000000    3.081062334000000
 C    7.893999635000000    9.853248747000000    4.550635276000000
 H    8.518371728000000    10.662173462000000    4.922239353000000
 C    7.991665275999999    8.582259593000000    5.110968513000000
 H    8.693442943000001    8.401576964000000    5.922229725000000
 C    7.187235361000000    7.538855825000000    4.638709073000000
 H    7.293235500000000    6.576164897000000    5.125059724000000
 C    6.280903218000000    7.755982454000000    3.590831117000000
 C    5.386871311000000    6.695651013000000    3.022773025000000
 O    4.524831288000000    6.997140647000000    2.199824604000000
 C    5.567110955000000    5.280445616000000    3.456339107000000
 C    4.778669401000000    4.283260216000000    3.029950055000000
 H    6.370066932000000    5.031063639000000    4.132924656000000
 N    3.721802129000000    4.344868187000000    2.162279324000000
 H    4.993230490000000    3.286624743000000    3.401993321000000
 H    3.540976357000000    5.282265087000000    1.791540798000000
 H    -6.464145932000000    -5.957096393000000    -6.517860059000000
 C    -6.779617685000000    -6.843820250000000    -5.970022317999999
 C    -7.600881996000000    -7.776498518000000    -6.609976613000000
 H    -7.912911506000000    -7.609302143000000    -7.638041066000000
 C    -8.017401551000001    -8.918507533000000    -5.931710529000000
 H    -8.656778565000000    -9.644700397999999    -6.427825688000000
 C    -7.608257320000000    -9.131257233999998    -4.617836903000000
 H    -7.929170952000000    -10.026595720000000    -4.089948376000000
 C    -6.782009879000000    -8.201354468000000    -3.976413561000000
 H    -6.480362645000000    -8.428577239999999    -2.960576190000000
 C    -6.363661531000000    -7.040658218000000    -4.643046153000000
 C    -5.484089745000000    -5.993176325000000    -4.030330093000000
 O    -5.050732799000000    -5.074873418000000    -4.723276435000000
 C    -5.157700883000000    -6.073381212000000    -2.577639596000000
 C    -4.341775682000000    -5.202402811000000    -1.966502033000000
 H    -5.599323039000000    -6.853697329000000    -1.976994687000000
 N    -3.687949065000000    -4.126721149000000    -2.504122891000000
 H    -4.169139367000000    -5.344569923000000    -0.904560352000000
 H    -3.876421623000000    -3.979470498000000    -3.499940798000000
 H    6.874728274000000    -4.261535528000000    -7.373802989999999
 C    7.168004122000000    -5.254237805000000    -7.035484673000000
 C    8.068094637000000    -5.992843513000000    -7.808921154000000
 H    8.462807423999999    -5.572918366000000    -8.730928881000001
 C    8.459262358000000    -7.264000683000000    -7.397988953000000
 H    9.158839179999999    -7.840140590000000    -7.998775413000000
 C    7.956582997000000    -7.793515479000000    -6.212302281000000
 H    8.266870856000001    -8.784540672999999    -5.888460699000000
 C    7.058985889000000    -7.054082791000000    -5.433593977000000
 H    6.715507243000000    -7.509156349000000    -4.511923058000000
 C    6.646968434000000    -5.776854824000000    -5.840485210000000
 C    5.687625970000000    -4.920776842000000    -5.070369416000000
 O    5.482710523999999    -3.760871962000000    -5.422340200000000
 C    4.981277465000000    -5.496910431000000    -3.890363454000000
 C    4.144601430000000    -4.782776335000000    -3.123674381000000
 H    5.130906719000000    -6.535350554000000    -3.637478350000000
 N    3.779850513000000    -3.470040856000000    -3.255199288000000
 H    3.677272566000000    -5.294363631000001    -2.288439629000000
 H    4.200885161000000    -2.999206584000000    -4.061364827000000




