%nproc=15
%mem=70GB
%chk=TrisPhenyl_Aldehyde_Azine.chk
#P B3LYP/6-311++G(d,p) EmpiricalDispersion=GD3 opt SCF=YQC

Comment

0 1
 C    5.413628598000000    -1.872546979000000    -0.010594081000000
 C    5.035722949999999    -0.755661278000000    0.753536436000000
 C    3.723673695000000    -0.300430655000000    0.759525264000000
 C    2.735803795999999    -0.944625681000000    0.000449131000000
 C    3.108315992000000    -2.059076085000000    -0.765208093000000
 C    4.420719166000000    -2.513357956000000    -0.770224134000000
 C    1.334053259000000    -0.458848890000000    0.000402830000000
 C    0.268355259000000    -1.366873890000000    0.008860830000000
 C    -1.059173741000000    -0.922488890000000    0.008337830000000
 C    -1.309241741000000    0.453656110000000    0.006809830000000
 C    -0.264218741000000    1.383363110000000    0.003920830000000
 C    1.053270259000000    0.911980110000000    -0.001354170000000
 C    -0.547166741000000    2.832910110000000    0.023508830000000
 C    0.132648259000000    3.710843110000000    -0.833951170000000
 C    -0.134981741000000    5.073690110000000    -0.817152170000000
 C    -1.095013741000000    5.616633110000000    0.054395830000000
 C    -1.773249741000000    4.731796110000000    0.910653830000000
 C    -1.504821741000000    3.368908110000000    0.897304830000000
 C    -2.182774741000000    -1.891955890000000    -0.017346170000000
 C    -3.315488741000000    -1.662366890000000    -0.812060170000000
 C    -4.366923741000000    -2.569668890000000    -0.831200170000000
 C    -4.330026741000000    -3.741083890000000    -0.056511170000000
 C    -3.194045741000000    -3.964973890000000    0.739344830000000
 C    -2.141176741000000    -3.059528890000000    0.758579830000000
 H    0.474380259000000    -2.429560890000000    -0.040814170000000
 H    1.873134259000000    1.618471110000000    0.074149830000000
 H    -2.335361741000000    0.804210110000000    -0.020704170000000
 H    0.839454259000000    3.316212110000000    -1.556644170000000
 H    -2.004881741000000    2.721095110000000    1.609926830000000
 H    0.396903259000000    5.726432110000000    -1.500808170000000
 H    -2.509284741000000    5.119474110000000    1.606548830000000
 H    4.680359519000000    -3.384593294000000    -1.361290287000000
 H    2.355934167000000    -2.588063678000000    -1.339179593000000
 H    5.783140304000000    -0.232983007000000    1.339887964000000
 H    3.464345167000000    0.579450163000000    1.337108744000000
 H    -1.287700741000000    -3.244167890000000    1.400987830000000
 H    -3.142543741000000    -4.854378890000000    1.357384830000000
 H    -5.225637741000000    -2.375433890000000    -1.464217170000000
 H    -3.358715741000000    -0.779456890000000    -1.439657170000000
 C    6.816161684000000    -2.327893416000000    0.016347372000000
 N    7.239276286000000    -3.328699347000000    -0.689642277000000
 H    7.507649641000000    -1.768226116000000    0.672928896000000
 N    8.603574404000000    -3.524301013000000    -0.486306825000000
 C    9.039192672000000    -4.518151064000000    -1.193663859000000
 C    10.456910061000000    -4.927040013000000    -1.185286629000000
 H    8.354896050000001    -5.097036250000000    -1.840745659000000
 C    10.852108736000000    -6.001696938000001    -1.987506210000000
 C    12.191576918999999    -6.395552966000000    -2.007764024000000
 H    10.129852913000001    -6.534429521000000    -2.600220112000000
 C    13.131211641000000    -5.718599888000000    -1.229018065000000
 H    12.504283809000000    -7.228823563000000    -2.632213653000000
 C    12.735198711999999    -4.648002791000000    -0.426533561000000
 H    14.174401681000001    -6.024978837000000    -1.248040522000000
 C    11.397372255000001    -4.250139208000000    -0.402827835000000
 H    13.468314295000001    -4.121179904000000    0.179143556000000
 H    11.095421248999999    -3.413231472000001    0.222171494000000
 C    -1.401120328000000    7.058603734000000    0.101137195000000
 N    -0.834807713000000    7.918703933000000    -0.685359804000000
 H    -2.150835900000000    7.383416200000000    0.846057193000000
 N    -1.324420502000000    9.199293956000000    -0.437805399000000
 C    -0.770481670000000    10.066707496999999    -1.224317123000000
 C    -1.126212006000000    11.498310060000000    -1.190361626000000
 H    -0.006753745000000    9.757859133000000    -1.961485438000000
 C    -0.493699443000000    12.370229036000000    -2.081602845000000
 C    -0.826590001000000    13.726282475000000    -2.078299706000000
 H    0.253332367000000    12.005778436000000    -2.781599300000000
 C    -1.786747812000000    14.208301412999999    -1.187581529000000
 H    -0.339564892000000    14.407756508000000    -2.771453738000000
 C    -2.415337097000000    13.337716938000000    -0.296546206000000
 H    -2.046690977000000    15.264191819000001    -1.188194385000000
 C    -2.086307815000000    11.981112219000000    -0.295921177000000
 H    -3.163531620000000    13.714447860000000    0.396363853000000
 H    -2.581762260000000    11.307125113000000    0.398686196000000
 C    -5.427904867000000    -4.725755074000000    -0.040650616000000
 N    -6.488808012000000    -4.600856301000000    -0.774097735000000
 H    -5.306360835000000    -5.594519743000000    0.632370468000000
 N    -7.347082162000000    -5.679971581000000    -0.574622506000000
 C    -8.408208695000001    -5.569398083999999    -1.309223864000000
 C    -9.473084546999999    -6.590779749000000    -1.310587771000000
 H    -8.550205290999999    -4.697075122000000    -1.973282896000000
 C    -10.581561328999999    -6.406177250000000    -2.142349091000000
 C    -11.593508391000000    -7.367837906000000    -2.172012059000000
 H    -10.665424687000000    -5.523627406000000    -2.770798383000000
 C    -11.497905064000001    -8.508211526000000    -1.373242906000000
 H    -12.456092759000001    -7.230167325000000    -2.819358833000000
 C    -10.392537108000001    -8.690070235000000    -0.541332541000000
 H    -12.285630325000000    -9.257391553000000    -1.399578717000000
 C    -9.378029837000000    -7.731786286000000    -0.508107685000000
 H    -10.319063740000001    -9.579159925000001    0.079929697000000
 H    -8.517707905000000    -7.880577017000000    0.139905140000000




