%nproc=15
%mem=70GB
%chk=PMDA_Aldehyde_Benzobisoxazole_freq.chk
#P B3LYP/6-311++G(d,p) EmpiricalDispersion=GD3 freq(noraman) SCF=YQC NoSymm

Restart from PMDA_Aldehyde_Benzobisoxazole.log

0 1
 C   2.657026  -0.816691  -0.571761
 C   1.213783  -0.503853  -0.357679
 C   0.095354  -1.141396  -0.881145
 H   0.166810  -1.994081  -1.544450
 C  -1.121950  -0.600567  -0.484834
 C  -2.502739  -1.030726  -0.852222
 C  -1.213991   0.498629   0.369493
 C  -2.657240   0.811424   0.583616
 C  -0.095564   1.136170   0.892956
 H  -0.167012   1.988856   1.556262
 C   1.121742   0.595347   0.496633
 C   2.502526   1.025514   0.864015
 N  -3.375793  -0.142472  -0.177977
 N   3.375591   0.137197   0.189832
 O  -3.133636   1.687030   1.259617
 O  -2.829045  -1.940772  -1.570719
 O   2.828815   1.935484   1.582613
 O   3.133413  -1.692347  -1.247703
 C  -4.798017  -0.200185  -0.256868
 C   4.797804   0.194766   0.268922
 C  -5.534764   0.979465  -0.400336
 C  -6.917780   0.921872  -0.473716
 H  -5.027336   1.932991  -0.441152
 C  -7.580914  -0.312179  -0.415011
 H  -7.499098   1.828542  -0.581756
 C  -6.832574  -1.488169  -0.276101
 C  -5.447736  -1.434178  -0.192065
 H  -7.337264  -2.444271  -0.229990
 H  -4.873571  -2.344259  -0.090406
 C   5.447674   1.428687   0.204166
 C   6.832501   1.482536   0.288429
 H   4.873634   2.338827   0.102348
 C   7.580697   0.306476   0.427496
 H   7.337301   2.438581   0.242349
 C   6.917420  -0.927506   0.486107
 C   5.534409  -0.984961   0.412508
 H   7.498629  -1.834234   0.594244
 H   5.026878  -1.938435   0.453228
 H  -14.190740  -2.242752  -0.660375
 C  -13.314307  -1.605505  -0.658506
 C  -13.476402  -0.214160  -0.780447
 H  -14.477126   0.191205  -0.873762
 C  -12.385658   0.651128  -0.784086
 H  -12.505432   1.723172  -0.877671
 C  -11.117152   0.081775  -0.661351
 N  -9.849297   0.653210  -0.630498
 C  -10.983805  -1.307177  -0.541105
 O  -9.644952  -1.584296  -0.437499
 C  -12.051588  -2.187200  -0.534979
 H  -11.914059  -3.256546  -0.440575
 C  -9.035110  -0.347668  -0.500363
 H   14.190707   2.236330   0.673530
 C   13.314202   1.599181   0.671668
 C   13.476116   0.207850   0.793990
 H   14.476776  -0.197610   0.887577
 C   12.385270  -0.657311   0.797662
 H   12.504903  -1.729346   0.891538
 C   11.116852  -0.087843   0.674546
 N   9.848935  -0.659144   0.643607
 C   10.983683   1.301093   0.553925
 O   9.644887   1.578331   0.449994
 C   12.051570   2.180991   0.547777
 H   11.914183   3.250329   0.453079
 C   9.034880   0.341789   0.513078






