%nproc=15
%mem=70GB
%chk=PMDA_Aldehyde_Benzobisoxazole.chk
#P B3LYP/6-311++G(d,p) EmpiricalDispersion=GD3 opt SCF=YQC NoSymm

Comment

0 1
 C    2.594721975000000    -0.803042738000000    -0.463296744000000
 C    1.192502366000000    -0.497212196000000    -0.218045132000000
 C    0.065053697000000    -1.207654423000000    -0.591075722000000
 H    0.117972119000000    -2.139694743000000    -1.142514618000000
 C    -1.136014647000000    -0.628168196000000    -0.220766459000000
 C    -2.493796812000000    -1.086064864000000    -0.477627101000000
 C    -1.212416318000000    0.572343425000000    0.469936694000000
 C    -2.634581919000000    0.879079250000000    0.641083051000000
 C    -0.077288290000000    1.277983164000000    0.852371574000000
 H    -0.130718641000000    2.219027793000000    1.389272092000000
 C    1.131286774000000    0.698479109000000    0.482625637000000
 C    2.510597082000000    1.145897664000000    0.689299179000000
 N    -3.354717750000000    -0.136510250000000    0.035418250000000
 N    3.344032250000000    0.208749750000000    0.102548250000000
 O    -2.977386949000000    1.885929367000000    1.234317595000000
 O    -2.674622336000000    -2.137303305000000    -1.063707033000000
 O    2.734903026000000    2.186746473000000    1.279923781000000
 O    2.894996663000000    -1.814846508000000    -1.070204593000000
 C    -4.779157750000000    -0.244520250000000    -0.079881750000000
 C    4.776282250000000    0.250709750000000    0.090598250000000
 C    -5.598447750000000    0.885339750000000    -0.236421750000000
 C    -6.987337750000000    0.768939750000000    -0.396281750000000
 H    -5.191987750000000    1.892079750000000    -0.255001750000000
 C    -7.593107750000001    -0.481480250000000    -0.397281750000000
 H    -7.592377750000001    1.663179750000000    -0.526491750000000
 C    -6.810587750000000    -1.614680250000000    -0.229201750000000
 C    -5.424057750000000    -1.494860250000000    -0.070921750000000
 H    -7.269907750000000    -2.600490250000000    -0.224171750000000
 H    -4.878867750000000    -2.424760250000000    0.057408250000000
 C    5.483312250000000    1.458609750000000    0.205788250000000
 C    6.885602250000000    1.492349750000000    0.200838250000000
 H    4.976532250000000    2.412839750000000    0.314018250000000
 C    7.616882250000000    0.317529750000000    0.076798250000000
 H    7.402702250000000    2.444229750000000    0.296648250000000
 C    6.945222250000000    -0.890780250000000    -0.041811750000000
 C    5.544762250000000    -0.921110250000000    -0.033961750000000
 H    7.503602250000000    -1.818700250000000    -0.141941750000000
 H    5.089732250000000    -1.901230250000000    -0.138591750000000
 H    -14.311642113000000    -2.095612567000000    -0.854402112000000
 C    -13.396319574000000    -1.507825636000000    -0.809984891000000
 C    -13.471131716000000    -0.112015370000000    -0.907219891000000
 H    -14.441181437999999    0.366979501000000    -1.026002152000000
 C    -12.314945070000000    0.681972112000000    -0.854943398000000
 H    -12.368327140000000    1.762179354000000    -0.930444854000000
 C    -11.079458701000000    0.039571447000000    -0.704305194000000
 N    -9.805219326000000    0.539950047000000    -0.626357287000000
 C    -11.049003291000000    -1.341651237000000    -0.612719135000000
 O    -9.746903709000000    -1.722594542000000    -0.477189385000000
 C    -12.168238840000001    -2.163671477000000    -0.657771414000000
 H    -12.090085224999999    -3.240611531000000    -0.581782662000000
 C    -9.050095236000001    -0.538251863000000    -0.496321643000000
 H    14.311642113000000    2.095612567000000    0.854402112000000
 C    13.396319574000000    1.507825636000000    0.809984891000000
 C    13.471131716000000    0.112015370000000    0.907219891000000
 H    14.441181437999999    -0.366979501000000    1.026002152000000
 C    12.314945070000000    -0.681972112000000    0.854943398000000
 H    12.368327140000000    -1.762179354000000    0.930444854000000
 C    11.079458701000000    -0.039571447000000    0.704305194000000
 N    9.805219326000000    -0.539950047000000    0.626357287000000
 C    11.049003291000000    1.341651237000000    0.612719135000000
 O    9.746903709000000    1.722594542000000    0.477189385000000
 C    12.168238840000001    2.163671477000000    0.657771414000000
 H    12.090085224999999    3.240611531000000    0.581782662000000
 C    9.050095236000001    0.538251863000000    0.496321643000000




