%nproc=15
%mem=70GB
%chk=TriPhenanthrene_long_Catechol_BoronateEster.chk
#P B3LYP/6-311++G(d,p) EmpiricalDispersion=GD3 opt SCF=YQC

Comment

0 1
 H    -3.354391864000000    7.227269985000000    0.000000000000000
 C    -2.813854864000000    6.280738985000000    0.000000000000000
 C    -1.404023864000000    6.280738985000000    0.000000000000000
 H    -4.612624864000000    5.053114985000000    0.000000000000000
 C    -3.522624864000000    5.053115985000000    0.000000000000000
 C    -2.813856864000000    3.825494985000000    0.000000000000000
 H    -0.855170864000000    2.881527985000000    0.000000000000000
 C    -1.400171864000000    3.825494985000000    0.000000000000000
 C    -0.695255864000000    5.053115985000000    0.000000000000000
 C    0.695316136000000    7.495017985000000    0.000000000000000
 C    -0.695256864000000    7.495017985000000    0.000000000000000
 C    1.404084136000000    6.280738985000000    0.000000000000000
 C    2.813916136000000    6.280738985000000    0.000000000000000
 H    3.354454136000000    7.227268985000000    0.000000000000000
 H    4.612685136000000    5.053114985000000    0.000000000000000
 C    3.522685136000000    5.053115985000000    0.000000000000000
 C    2.813916136000000    3.825494985000000    0.000000000000000
 H    0.855229136000000    2.881528985000000    0.000000000000000
 C    1.400231136000000    3.825494985000000    0.000000000000000
 C    0.695316136000000    5.053115985000000    0.000000000000000
 C    4.719904136000000    0.524226985000000    0.000000000000000
 C    6.137440136000000    0.524226985000000    0.000000000000000
 H    6.682439136000000    1.468194985000000    0.000000000000000
 H    7.936197136000000    -0.708541015000000    0.000000000000000
 C    6.846209136000000    -0.703396015000000    0.000000000000000
 C    6.141292136000000    -1.924347015000000    0.000000000000000
 C    4.723756136000000    -1.924347015000000    0.000000000000000
 C    4.013062136000000    -0.700060015000000    0.000000000000000
 H    2.923062136000000    -0.700060015000000    0.000000000000000
 C    4.028470136000000    -3.128616015000000    0.000000000000000
 C    2.612861136000000    -3.125282015000000    0.000000000000000
 H    2.067862136000000    -2.181314015000000    0.000000000000000
 C    1.906018136000000    -4.349569015000000    0.000000000000000
 C    2.614785136000000    -5.577190015000000    0.000000000000000
 H    2.069783136000000    -6.521157015000000    0.000000000000000
 H    4.581773136000000    -6.518574015000000    0.000000000000000
 C    4.032323136000000    -5.577190015000000    0.000000000000000
 C    4.737238135999999    -4.356239015000000    0.000000000000000
 C    6.143219136000000    -4.349569015000000    0.000000000000000
 C    6.838505136000000    -3.145296015000000    0.000000000000000
 H    -6.682379864000000    1.468193985000000    0.000000000000000
 C    -6.137379864000000    0.524226985000000    0.000000000000000
 C    -4.719843864000000    0.524226985000000    0.000000000000000
 H    -2.923001864000000    -0.700060015000000    0.000000000000000
 C    -4.013001864000000    -0.700060015000000    0.000000000000000
 C    -4.723694864000000    -1.924347015000000    0.000000000000000
 H    -7.936134864000000    -0.708541015000000    0.000000000000000
 C    -6.846146864000000    -0.703396015000000    0.000000000000000
 C    -6.141231864000000    -1.924347015000000    0.000000000000000
 H    -2.067797864000000    -2.181315015000000    0.000000000000000
 C    -2.612798864000000    -3.125282015000000    0.000000000000000
 C    -4.028409864000000    -3.128616015000000    0.000000000000000
 C    -1.905956864000000    -4.349569015000000    0.000000000000000
 C    -2.614725864000000    -5.577190015000000    0.000000000000000
 H    -2.069725864000000    -6.521158015000000    0.000000000000000
 H    -4.581710864000000    -6.518576015000001    0.000000000000000
 C    -4.032261864000000    -5.577190015000000    0.000000000000000
 C    -4.737177864000000    -4.356239015000000    0.000000000000000
 C    -6.838443864000000    -3.145296015000000    0.000000000000000
 C    -6.143156864000000    -4.349569015000000    0.000000000000000
 C    -0.605969864000000    -4.349549015000000    0.000000000000000
 C    0.604030136000000    -4.349549015000000    0.000000000000000
 C    -4.069839864000000    1.650063985000000    0.000000000000000
 C    -3.464839864000000    2.697954985000000    0.000000000000000
 C    4.069900136000000    1.650063985000000    0.000000000000000
 C    3.464900136000000    2.697954985000000    0.000000000000000
 B    0.000099975000000    9.589735752999999    -0.000009000000000
 C    0.000127880000000    11.125430590000001    0.000000000000000
 C    -1.207999965000000    11.842871691999999    0.000003000000000
 C    1.208236909000000    11.842933761999999    0.000004000000000
 C    -1.209173002000000    13.234731635999999    0.000010000000000
 C    1.209333831000000    13.234797294000000    0.000010000000000
 C    0.000065304000000    13.931398087000000    0.000013000000000
 O    -1.148128136000000    8.796225768999999    -0.000003000000000
 O    1.148274294000000    8.796163751000000    -0.000002000000000
 H    -2.147873944000000    13.777391927000000    0.000012000000000
 H    2.148009365000000    13.777505014999999    0.000012000000000
 H    2.147926594000000    11.301364016000001    0.000001000000000
 H    -2.147655771000000    11.301251164000000    -0.000000000000000
 H    0.000037850000000    15.015932565000000    0.000018000000000
 B    8.304918197999999    -4.794830786000000    -0.000009000000000
 C    9.634864099000000    -5.562686588000000    0.000000000000000
 C    10.860242081999999    -4.875123192000001    0.000003000000000
 C    9.652202233000001    -6.967691077000000    0.000004000000000
 C    12.066222916999999    -5.570022971000000    0.000010000000000
 C    10.857051219000001    -7.664558507000000    0.000010000000000
 C    12.064951171000001    -6.965587305000000    0.000013000000000
 O    8.191815939000000    -3.403682422000000    -0.000003000000000
 O    7.043584616000000    -5.392407882000000    -0.000002000000000
 H    13.005524558999999    -5.028403108000000    0.000012000000000
 H    10.857724993000000    -8.748829218999999    0.000012000000000
 H    8.713350676999999    -7.510712486000000    0.000001000000000
 H    10.860999977000002    -3.790547120000000    0.000000000000000
 H    13.004205743000000    -7.507819621000000    0.000018000000000
 B    -8.304914165000000    -4.794730777000000    -0.000009000000000
 C    -9.634878734999999    -5.562554244000000    0.000000000000000
 C    -9.652136806000000    -6.967544203000000    0.000003000000000
 C    -10.860309335000000    -4.875052918000000    0.000004000000000
 C    -10.856936244000000    -7.664490249000000    0.000010000000000
 C    -12.066246860000000    -5.570034916000001    0.000010000000000
 C    -12.064886355000001    -6.965592577000000    0.000013000000000
 O    -7.043600209000000    -5.392370295000000    -0.000003000000000
 O    -8.191748036000000    -3.403596629000000    -0.000002000000000
 H    -10.857543196000000    -8.748759257000000    0.000012000000000
 H    -13.005583389000000    -5.028472070000000    0.000012000000000
 H    -10.861141195000000    -3.790472906000000    0.000001000000000
 H    -8.713251678000001    -7.510499585000000    0.000000000000000
 H    -13.004106950000001    -7.507883744000000    0.000018000000000




