%nproc=15
%mem=70GB
%chk=TriPhenanthrene_long_Catechol_BoronateEster_freq.chk
#P B3LYP/6-311++G(d,p) EmpiricalDispersion=GD3 freq(noraman) SCF=YQC

Restart from TriPhenanthrene_long_Catechol_BoronateEster.log

0 1
 H   8.098168  -0.524404  -0.000001
 C   7.014995  -0.524278  -0.000001
 C   6.337759  -1.762150  -0.000002
 H   6.829775   1.607393  -0.000001
 C   6.311852   0.656314  -0.000001
 C   4.893110   0.640416  -0.000002
 H   3.142374  -0.561646  -0.000002
 C   4.223165  -0.583464  -0.000002
 C   4.907671  -1.811390  -0.000002
 C   6.367671  -4.202927  -0.000002
 C   7.012812  -3.005484  -0.000002
 C   4.958005  -4.323077  -0.000002
 C   4.296762  -5.569570  -0.000001
 H   4.892688  -6.474077  -0.000000
 H   2.414649  -6.587441  -0.000000
 C   2.924048  -5.631770  -0.000001
 C   2.156942  -4.438200  -0.000001
 H   2.197766  -2.314908  -0.000002
 C   2.810514  -3.205491  -0.000002
 C   4.212508  -3.101687  -0.000002
 C  -1.891927  -4.557622  -0.000001
 C  -2.587460  -5.794271  -0.000001
 H  -2.022698  -6.718310  -0.000000
 H  -4.503138  -6.750967  -0.000001
 C  -3.961471  -5.812960  -0.000001
 C  -4.694954  -4.607554  -0.000001
 C  -4.022617  -3.344430  -0.000002
 C  -2.616945  -3.365543  -0.000002
 H  -2.057689  -2.440426  -0.000002
 C  -4.792484  -2.097275  -0.000002
 C  -4.181368  -0.831225  -0.000002
 H  -3.103720  -0.745882  -0.000002
 C  -4.922108   0.351149  -0.000001
 C  -6.339319   0.283638  -0.000001
 H  -6.912222   1.202651  -0.000000
 H  -8.053129  -1.000074  -0.000000
 C  -6.971836  -0.936267  -0.000001
 C  -6.222983  -2.132186  -0.000001
 C  -6.823744  -3.413087  -0.000002
 C  -6.109264  -4.570516  -0.000002
 H   4.497701   5.384987  -0.000001
 C   3.415361   5.348285  -0.000001
 C   2.765295   4.087148  -0.000002
 H   0.906063   3.060852  -0.000002
 C   1.370955   4.036793  -0.000002
 C   0.580023   5.199018  -0.000002
 H   3.160445   7.474323  -0.000001
 C   2.675099   6.505974  -0.000001
 C   1.264975   6.455361  -0.000002
 H  -1.084544   3.002169  -0.000002
 C  -1.606094   3.949058  -0.000002
 C  -0.884988   5.155856  -0.000002
 C  -3.000986   3.917226  -0.000001
 C  -3.724211   5.137884  -0.000001
 H  -4.806833   5.110785  -0.000000
 H  -3.594904   7.275261  -0.000000
 C  -3.053409   6.337155  -0.000001
 C  -1.642754   6.369653  -0.000001
 C   0.456017   7.616052  -0.000002
 C  -0.903581   7.575972  -0.000002
 C  -3.686330   2.673767  -0.000001
 C  -4.260750   1.607551  -0.000001
 C   3.522766   2.886262  -0.000001
 C   4.158984   1.855736  -0.000001
 C  -0.472386  -4.529434  -0.000001
 C   0.738186  -4.493660  -0.000001
 B   8.535954  -4.598595  -0.000008
 C   9.887707  -5.326924  -0.000001
 C   11.092699  -4.604134   0.000002
 C   9.946722  -6.730832   0.000002
 C   12.318522  -5.263328   0.000007
 C   11.171427  -7.392102   0.000007
 C   12.358425  -6.658276   0.000010
 O   8.374260  -3.211823  -0.000000
 O   7.288887  -5.226385   0.000000
 H   13.241523  -4.694376   0.000009
 H   11.203855  -8.475885   0.000009
 H   9.024500  -7.301666   0.000000
 H   11.062290  -3.519965  -0.000000
 H   13.313143  -7.172732   0.000013
 B  -8.250513  -5.093056  -0.000008
 C  -9.557117  -5.899578  -0.000001
 C  -9.533621  -7.304533   0.000002
 C  -10.802474  -5.248799   0.000002
 C  -10.717379  -8.036579   0.000007
 C  -11.987470  -5.978840   0.000007
 C  -11.945421  -7.373724   0.000009
 O  -6.968678  -5.646401  -0.000000
 O  -8.170693  -3.699173   0.000000
 H  -10.686103  -9.120397   0.000008
 H  -12.942282  -5.465059   0.000009
 H  -10.835777  -4.164715  -0.000000
 H  -8.579480  -7.820247  -0.000001
 H  -12.868288  -7.943346   0.000013
 B  -0.285575   9.691631  -0.000008
 C  -0.330755   11.226453  -0.000001
 C  -1.559226   11.908578   0.000002
 C   0.855521   11.979548   0.000002
 C  -1.601273   13.299772   0.000007
 C   0.815834   13.370808   0.000007
 C  -0.413190   14.031842   0.000009
 O  -1.405685   8.858166  -0.000000
 O   0.881688   8.925599  -0.000000
 H  -2.555507   13.814624   0.000009
 H   1.738196   13.940794   0.000009
 H   1.810979   11.466288  -0.000000
 H  -2.482918   11.340126  -0.000000
 H  -0.445052   15.115881   0.000013






