%nproc=15
%mem=70GB
%chk=Pyrene_tBu_Cyanohydrine_Benzobisoxazole_freq.chk
#P B3LYP/6-311++G(d,p) EmpiricalDispersion=GD3 freq(noraman) SCF=YQC

Restart from Pyrene_tBu_Cyanohydrine_Benzobisoxazole.log

0 1
 C   2.390852  -0.818100  -0.000010
 C   1.143708  -1.526481  -0.000012
 C  -0.033963  -0.720395  -0.000011
 C   0.033963   0.720395  -0.000001
 C   1.286327   1.404585   0.000009
 C   2.423557   0.554277  -0.000019
 C  -1.143708   1.526481   0.000009
 C  -1.051086   2.918499   0.000041
 C   0.183957   3.581055   0.000056
 C   1.344244   2.804408   0.000035
 C  -1.286327  -1.404585  -0.000011
 C  -2.423557  -0.554277  -0.000028
 C  -2.390852   0.818100   0.000001
 C  -1.344244  -2.804408  -0.000005
 C  -0.183957  -3.581055   0.000005
 C   1.051086  -2.918499   0.000000
 H   2.322307   3.264520   0.000033
 H  -1.977741   3.478438   0.000055
 H   1.977741  -3.478438   0.000007
 H  -2.322307  -3.264520  -0.000013
 C   0.216339   5.117862   0.000089
 C  -0.216339  -5.117862   0.000017
 C  -1.651019  -5.674665   0.000021
 C   0.505699  -5.642725  -1.262172
 C   0.505696  -5.642707   1.262217
 C  -0.505697   5.642689   1.262296
 C   1.651019   5.674665   0.000101
 C  -0.505699   5.642743  -1.262093
 H  -1.619291  -6.767410   0.000038
 H  -2.207990  -5.360647   0.887091
 H  -2.207985  -5.360675  -0.887062
 H   0.491338  -6.736872  -1.278076
 H   0.013376  -5.280768  -2.168955
 H   1.548903  -5.321429  -1.296038
 H   0.491337  -6.736853   1.278136
 H   1.548900  -5.321410   1.296085
 H   0.013369  -5.280739   2.168993
 H  -0.491336   6.736836   1.278230
 H  -1.548900   5.321393   1.296159
 H  -0.013369   5.280708   2.169068
 H  -0.491338   6.736890  -1.277982
 H  -0.013376   5.280798  -2.168881
 H  -1.548903   5.321447  -1.295964
 H   1.619291   6.767410   0.000133
 H   2.207990   5.360634   0.887167
 H   2.207985   5.360687  -0.886987
 N   3.688735  -1.302739   0.000002
 O   3.735079   0.941681  -0.000044
 C   4.441809  -0.241636  -0.000021
 C   6.557068   1.071705   0.000524
 C   7.947675   1.118554   0.000525
 H   5.979099   1.987107   0.000958
 C   8.690736  -0.061571  -0.000038
 H   8.452081   2.078068   0.000971
 C   8.035440  -1.294604  -0.000611
 H   9.774068  -0.021731  -0.000030
 C   6.647176  -1.350658  -0.000616
 H   8.609619  -2.214096  -0.001065
 H   6.128195  -2.300978  -0.001062
 C   5.896293  -0.165099  -0.000040
 N  -3.688735   1.302739   0.000020
 O  -3.735079  -0.941681  -0.000058
 C  -4.441809   0.241636  -0.000019
 C  -6.557068  -1.071705   0.000506
 C  -7.947675  -1.118554   0.000505
 H  -5.979099  -1.987107   0.000926
 C  -8.690736   0.061571  -0.000040
 H  -8.452081  -2.078068   0.000937
 C  -8.035440   1.294604  -0.000595
 H  -9.774068   0.021731  -0.000033
 C  -6.647176   1.350658  -0.000598
 H  -8.609619   2.214096  -0.001036
 H  -6.128195   2.300978  -0.001031
 C  -5.896293   0.165099  -0.000040






