%nproc=15
%mem=70GB
%chk=3_Phenyl_PrimaryAmine_Ketoenamine_freq.chk
#P B3LYP/6-311++G(d,p) EmpiricalDispersion=GD3 freq(noraman) SCF=YQC NoSymm

Restart from 3_Phenyl_PrimaryAmine_Ketoenamine.log

0 1
 C   1.224064   0.671342  -0.030664
 C   1.196251  -0.724348  -0.004218
 C  -0.034400  -1.393381  -0.002275
 C  -1.229195  -0.671650  -0.027645
 C  -1.193561   0.728717  -0.039717
 C   0.029230   1.402535  -0.037794
 H  -2.188856  -1.169741  -0.057906
 H   0.078752   2.483018  -0.037696
 H   2.106778  -1.306311   0.042097
 H   4.975032   5.770029  -0.288512
 C   5.947397   5.327893  -0.110940
 C   7.095031   6.111426  -0.075142
 H   7.023807   7.181309  -0.235915
 C   8.336737   5.523159   0.170585
 H   9.231978   6.134085   0.202833
 C   8.422149   4.147576   0.379472
 H   9.382390   3.687096   0.582575
 C   7.273907   3.360736   0.331621
 H   7.359203   2.296642   0.512860
 C   6.022773   3.941459   0.083107
 C   4.747039   3.153675   0.037394
 O   3.662234   3.757936   0.132353
 C   4.800367   1.716117  -0.136352
 C   3.677546   0.933891  -0.165683
 H   5.748309   1.221228  -0.282838
 N   2.416712   1.402098  -0.032474
 H   3.782853  -0.133949  -0.316294
 H   2.376322   2.420156   0.062928
 H  -7.481644   1.414262  -0.368505
 C  -7.589100   2.478453  -0.199749
 C  -8.843025   3.078155  -0.182869
 H  -9.730805   2.478531  -0.349811
 C  -8.960032   4.449139   0.051605
 H  -9.937985   4.917145   0.069079
 C  -7.815517   5.214819   0.268373
 H  -7.901374   6.277897   0.462935
 C  -6.558289   4.616159   0.239405
 H  -5.682750   5.225171   0.426446
 C  -6.429983   3.240799   0.002247
 C  -5.108027   2.532362  -0.023178
 O  -5.087322   1.291822   0.084303
 C  -3.889712   3.298354  -0.192233
 C  -2.649409   2.719587  -0.205136
 H  -3.935990   4.365494  -0.347319
 N  -2.423131   1.395167  -0.059013
 H  -1.777361   3.345821  -0.351137
 H  -3.284516   0.850784   0.034904
 H   2.334400  -7.188951  -0.907539
 C   1.544370  -7.811504  -0.506563
 C   1.651752  -9.197392  -0.512027
 H   2.533491  -9.669121  -0.931057
 C   0.628146  -9.980818   0.023417
 H   0.712783  -11.061818   0.023369
 C  -0.502066  -9.368858   0.563101
 H  -1.294842  -9.971971   0.991028
 C  -0.615194  -7.980675   0.557555
 H  -1.494022  -7.524607   0.995762
 C   0.405914  -7.185184   0.020042
 C   0.354497  -5.686041  -0.001558
 O   1.408275  -5.050319  -0.192751
 C  -0.914318  -5.011001   0.181251
 C  -1.031668  -3.647200   0.181152
 H  -1.821548  -5.582235   0.305608
 N   0.002143  -2.791578   0.021546
 H  -2.009328  -3.202366   0.323682
 H   0.900406  -3.267360  -0.096555






