%nproc=15
%mem=70GB
%chk=3_Phenyl_PrimaryAmine_Ketoenamine.chk
#P B3LYP/6-311++G(d,p) EmpiricalDispersion=GD3 opt SCF=YQC NoSymm

Comment

0 1
 C    1.212954000000000    0.700272000000000    0.000000000000000
 C    1.208877000000000    -0.698223000000000    0.000000000000000
 C    -0.000137000000000    -1.400767000000000    0.000000000000000
 C    -1.209188000000000    -0.698053000000000    0.000000000000000
 C    -1.213163000000000    0.700261000000000    0.000000000000000
 C    0.000000000000000    1.395989000000000    0.000000000000000
 H    -2.145136000000000    -1.238581000000000    0.000000000000000
 H    -0.000098000000000    2.476797000000000    0.000000000000000
 H    2.144938000000000    -1.238545000000000    0.000000000000000
 H    5.081358347000000    5.921896455000000    -0.135347646000000
 C    6.041137506000000    5.414710014000000    -0.048666070000000
 C    7.209857931000000    6.180995420000000    -0.020301234000000
 H    7.149585955999999    7.264765544000000    -0.083887148000000
 C    8.449114342000000    5.556753309000000    0.090529017000000
 H    9.359245218000000    6.151300390000001    0.112089415000000
 C    8.519728102000000    4.168942072000000    0.179517827000000
 H    9.487900863000000    3.681719901000000    0.271924119000000
 C    7.350742759000000    3.399683423000000    0.156230662000000
 H    7.465678920000000    2.325911205000000    0.247607407000000
 C    6.095920482000000    4.013684737000000    0.033537642000000
 C    4.797283711000000    3.266404559000000    -0.003888074000000
 O    3.734263948000000    3.883191921000000    0.024667832000000
 C    4.814512871000000    1.777936181000000    -0.090127479000000
 C    3.697650395000000    1.036068661000000    -0.081339877000000
 H    5.758754241000000    1.262415082000000    -0.175824088000000
 N    2.397046681000000    1.455894939000000    -0.005232398000000
 H    3.815833506000000    -0.040449906000000    -0.151164264000000
 H    2.289053080000000    2.473659080000000    0.031530323000000
 H    -7.669509716000001    1.438841542000000    -0.135347646000000
 C    -7.710287904000000    2.523623207000000    -0.048666070000000
 C    -8.958343188000001    3.152478329000000    -0.020301234000000
 H    -9.866711223999999    2.558291570000000    -0.083887148000000
 C    -9.037521438000001    4.537817807000000    0.090529017000000
 H    -10.007536291999999    5.028628998000000    0.112089415000000
 C    -7.871035509000000    5.293011102000000    0.179517827000000
 H    -7.933299750000000    6.375077229000000    0.271924119000000
 C    -6.620273008000000    4.665413487000000    0.156230662000000
 H    -5.747900382000000    5.301937719000000    0.247607407000000
 C    -6.524442072000000    3.271715890000000    0.033537642000000
 C    -5.227873572000000    2.520852884000000    -0.003888074000000
 O    -5.230375653999999    1.291856788000000    0.024667832000000
 C    -3.947524176000000    3.280155446000000    -0.090127479000000
 C    -2.746548143000000    2.683996258000000    -0.081339877000000
 H    -3.973314373000000    4.355650045000000    -0.175824088000000
 N    -2.459672592000000    1.347760298000000    -0.005232398000000
 H    -1.873421065000000    3.324705694000000    -0.151164264000000
 H    -3.287015999000000    0.745257725000000    0.031530323000000
 H    2.587237934000000    -7.361925033000000    -0.135347646000000
 C    1.668065281000000    -7.939450575999999    -0.048666070000000
 C    1.747214801000000    -9.334741266000000    -0.020301234000000
 H    2.715883624000000    -9.824507644000001    -0.083887148000000
 C    0.586915491000000    -10.095753865000001    0.090529017000000
 H    0.646655102000000    -11.181228702000000    0.112089415000000
 C    -0.650219975000000    -9.462901455000001    0.179517827000000
 H    -1.556301260000000    -10.057679265000001    0.271924119000000
 C    -0.731811801000000    -8.065894521000001    0.156230662000000
 H    -1.719158510000000    -7.628466157000000    0.247607407000000
 C    0.427403156000000    -7.286281000000000    0.033537642000000
 C    0.429679154000000    -5.787988656000000    -0.003888074000000
 O    1.495392091000000    -5.175866445000000    0.024667832000000
 C    -0.867927840000000    -5.058570364000000    -0.090127479000000
 C    -0.951864446000000    -3.720398531000000    -0.081339877000000
 H    -1.786548198000000    -5.618472503000000    -0.175824088000000
 N    0.062091780000000    -2.804037852000000    -0.005232398000000
 H    -1.943213156000000    -3.284408611000000    -0.151164264000000
 H    0.997464571000000    -3.219470404000000    0.031530323000000




