%nproc=15
%mem=70GB
%chk=3_Phenyl_Hydrazide_Hydrazone_freq.chk
#P B3LYP/6-311++G(d,p) EmpiricalDispersion=GD3 freq(noraman) SCF=YQC

Restart from 3_Phenyl_Hydrazide_Hydrazone.log

0 1
 C   0.575939   1.278397  -0.378152
 C   1.382652   0.142407  -0.384832
 C   0.817894  -1.137749  -0.377730
 C  -0.569260  -1.268408  -0.385366
 C  -1.395618  -0.139257  -0.378445
 C  -0.815074   1.127336  -0.385740
 H  -1.065403  -2.229980  -0.434604
 H  -1.399584   2.037862  -0.435291
 H   2.463506   0.193454  -0.433547
 C   1.092415   2.696299  -0.399835
 O   0.368465   3.633801  -0.670402
 N   2.426166   2.835462  -0.073559
 H   2.963310   2.025330   0.219310
 N   3.024511   4.054378  -0.093139
 C   4.257191   4.104404   0.248511
 C   5.007240   5.360633   0.261065
 H   4.806397   3.200694   0.546231
 C   6.354755   5.346880   0.647209
 C   7.097228   6.525144   0.670437
 H   6.822772   4.409082   0.929742
 C   6.500230   7.730377   0.307566
 H   8.138561   6.501328   0.970602
 C   5.156704   7.752304  -0.079317
 H   7.075744   8.648950   0.324373
 C   4.412911   6.580599  -0.104091
 H   4.691183   8.689562  -0.362676
 H   3.371938   6.588776  -0.403091
 C  -2.881761  -0.400955  -0.400349
 O  -3.331483  -1.496880  -0.670396
 N  -3.669371   0.684417  -0.074140
 H  -3.236621   1.554921   0.218425
 N  -5.024114   0.592506  -0.093234
 C  -5.684357   1.634429   0.249081
 C  -7.147320   1.654723   0.261513
 H  -5.177003   2.562016   0.547603
 C  -7.810336   2.827633   0.648647
 C  -9.202032   2.880186   0.671827
 H  -7.233074   3.702131   0.932090
 C  -9.946210   1.760203   0.307871
 H  -9.702959   3.793173   0.972770
 C  -9.292283   0.586670  -0.080012
 H  -11.029513   1.798284   0.324652
 C  -7.905613   0.529661  -0.104674
 H  -9.870370  -0.285395  -0.364204
 H  -7.391364  -0.375206  -0.404413
 C   1.787745  -2.293832  -0.398899
 O   2.961904  -2.135111  -0.667947
 N   1.241478  -3.518771  -0.073635
 H   0.270904  -3.579517   0.217788
 N   1.998693  -4.645913  -0.092424
 C   1.426330  -5.739045   0.248450
 C   2.140473  -7.016005   0.260952
 H   0.368846  -5.763987   0.545192
 C   1.455866  -8.176995   0.646461
 C   2.106325  -9.408449   0.669712
 H   0.409496  -8.114647   0.928515
 C   3.448821  -9.492501   0.307430
 H   1.565839  -10.299023   0.969370
 C   4.138513  -8.339063  -0.078833
 H   3.957617  -10.449642   0.324246
 C   3.494427  -7.109727  -0.103540
 H   5.183167  -8.403346  -0.361709
 H   4.021215  -6.211664  -0.401993






