%nproc=15
%mem=70GB
%chk=TetraPhenylMethane_Aldehyde_Imine_freq.chk
#P B3LYP/6-311++G(d,p) EmpiricalDispersion=GD3 freq(noraman) SCF=YQC

Restart from TetraPhenylMethane_Aldehyde_Imine.log

0 1
 C   0.024945  -0.000088   0.000059
 C  -2.899797   2.014857   2.554008
 C   2.946946   2.557138  -2.014751
 C  -2.899915  -2.015124  -2.553693
 C   2.947506  -2.556983   2.014497
 C  -2.136805   2.754193   1.642062
 C   2.182733   1.646789  -2.754744
 C  -2.136900  -2.754434  -1.641746
 C   2.183278  -1.646729   2.754591
 C  -1.178691   2.131698   0.851491
 C   1.227000   0.853474  -2.132022
 C  -1.178749  -2.131923  -0.851233
 C   1.227369  -0.853527   2.131995
 C  -0.944680   0.753711   0.943828
 C   0.994284   0.943944  -0.753728
 C  -0.944726  -0.753940  -0.943626
 C   0.994475  -0.944025   0.753731
 C  -1.731351   0.014271   1.837716
 C   1.781176   1.837261  -0.013877
 C  -1.731419  -0.014527  -1.837516
 C   1.781400  -1.837228   0.013776
 C  -2.684082   0.632006   2.635108
 C   2.733055   2.635767  -0.631476
 C  -2.684184  -0.632279  -2.634853
 C   2.733455  -2.635621   0.631249
 H  -2.308330   3.820723   1.561614
 H   2.352242   1.568857  -3.821772
 H  -2.308438  -3.820958  -1.561250
 H   2.352917  -1.568778   3.821598
 H  -0.613807   2.730698   0.149981
 H   0.661781   0.152718  -2.731579
 H  -0.613857  -2.730906  -0.149717
 H   0.662155  -0.152835   2.731630
 H  -1.601832  -1.059260   1.901347
 H   1.652844   1.899119   1.059917
 H  -1.601880   1.059000  -1.901198
 H   1.652953  -1.899084  -1.060004
 H  -3.274395   0.035336   3.323455
 H   3.324745   3.322496  -0.034308
 H  -3.274511  -0.035628  -3.323206
 H   3.325161  -3.322265   0.033999
 C  -7.164045   5.614974   5.777917
 C  -5.918622   6.230672   5.639464
 C  -7.416616   4.417246   5.110498
 C  -6.429793   3.825893   4.325630
 C  -5.169936   4.432836   4.197424
 C  -4.934755   5.655722   4.842747
 C  -3.915281   2.642004   3.406059
 N  -4.141356   3.898344   3.403191
 H  -5.718107   7.168240   6.145987
 H  -8.389342   3.944833   5.192762
 H  -6.641882   2.911721   3.782852
 H  -3.969485   6.131388   4.715234
 H  -4.467767   1.959708   4.067531
 H  -7.934787   6.072954   6.386992
 C   7.057178   5.942226  -5.646483
 C   6.973449   4.598830  -6.017417
 C   6.180429   6.446120  -4.686704
 C   5.239065   5.614094  -4.085803
 C   5.162731   4.258263  -4.443449
 C   6.023832   3.766515  -5.435346
 C   3.961171   3.410951  -2.641726
 N   4.220762   3.374021  -3.890952
 H   7.644024   4.201847  -6.771430
 H   6.222104   7.494022  -4.410471
 H   4.538309   6.018130  -3.364004
 H   5.938903   2.725944  -5.725593
 H   4.503032   4.083005  -1.961232
 H   7.787811   6.592896  -6.112919
 C  -7.164320  -5.615310  -5.777318
 C  -5.918899  -6.231018  -5.638886
 C  -7.416853  -4.417554  -5.109934
 C  -6.429997  -3.826184  -4.325123
 C  -5.170142  -4.433136  -4.196938
 C  -4.934997  -5.656049  -4.842224
 C  -3.915438  -2.642290  -3.405683
 N  -4.141528  -3.898627  -3.402761
 H  -5.718413  -7.168606  -6.145380
 H  -8.389577  -3.945133  -5.192182
 H  -6.642056  -2.911988  -3.782371
 H  -3.969729  -6.131722  -4.714727
 H  -4.467937  -1.960012  -4.067162
 H  -7.935089  -6.073304  -6.386349
 C   7.058619  -5.941589   5.645681
 C   6.974768  -4.598207   6.016639
 C   6.181812  -6.445584   4.686008
 C   5.240269  -5.613670   4.085234
 C   5.163810  -4.257852   4.442902
 C   6.024974  -3.766006   5.434696
 C   3.961917  -3.410674   2.641338
 N   4.221661  -3.373722   3.890532
 H   7.645389  -4.201148   6.770571
 H   6.223583  -7.493478   4.409760
 H   4.539472  -6.017786   3.363519
 H   5.939952  -2.725448   5.724963
 H   4.503776  -4.082655   1.960770
 H   7.789391  -6.592172   6.112020






