%nproc=15
%mem=70GB
%chk=Pyrene_H_Catechol_BoronateEster.chk
#P B3LYP/6-311++G(d,p) EmpiricalDispersion=GD3 opt SCF=YQC

Comment

0 1
 C    -0.000018454000000    3.538232864000000    0.000000000000000
 C    -1.208481454000000    2.825825864000000    0.000000000000000
 C    -1.234690454000000    1.426510864000000    0.000000000000000
 C    0.000005546000000    0.711866864000000    0.000000000000000
 C    1.234710546000000    1.426500864000000    0.000000000000000
 C    1.208465546000000    2.825809864000000    0.000000000000000
 H    -2.147901454000000    3.368902864000000    0.000000000000000
 H    2.147887546000000    3.368897864000000    0.000000000000000
 C    -0.000000454000000    -0.711870136000000    0.000000000000000
 C    -1.234703454000000    -1.426506136000000    0.000000000000000
 C    -1.208477454000000    -2.825813136000000    0.000000000000000
 C    0.000007546000000    -3.538224136000000    0.000000000000000
 C    1.208488546000000    -2.825823136000000    0.000000000000000
 C    1.234703546000000    -1.426514136000000    0.000000000000000
 H    -2.147899454000000    -3.368898136000000    0.000000000000000
 H    2.147910546000000    -3.368903136000000    0.000000000000000
 C    2.463158546000000    0.679246864000000    0.000000000000000
 C    2.463158546000000    -0.679259136000000    0.000000000000000
 C    -2.463145454000000    0.679256864000000    0.000000000000000
 C    -2.463154454000000    -0.679249136000000    0.000000000000000
 H    -0.000034519000000    4.628232863999999    0.000000000000000
 H    0.000010606000000    -4.628224136000000    0.000000000000000
 B    4.557876314000000    -0.000073410000000    -0.000009000000000
 C    6.093571151000000    -0.000099068000000    0.000000000000000
 C    6.811010486000000    1.208029826000000    0.000003000000000
 C    6.811076091000000    -1.208207048000000    0.000004000000000
 C    8.202870427000001    1.209204900000000    0.000010000000000
 C    8.202939624000001    -1.209301934000000    0.000010000000000
 C    8.899538649000000    -0.000032388000000    0.000013000000000
 O    3.764364650000000    1.148153540000000    -0.000003000000000
 O    3.764305992000000    -1.148248891000000    -0.000002000000000
 H    8.745529346000001    2.147906635000000    0.000012000000000
 H    8.745648718999998    -2.147976674000000    0.000012000000000
 H    6.269507720000000    -2.147897525000000    0.000001000000000
 H    6.269388583000000    2.147684839000000    0.000000000000000
 H    9.984073126000000    -0.000003347000000    0.000018000000000
 B    -4.557867722000000    0.000069206000000    -0.000009000000000
 C    -6.093562560000000    0.000093448000000    0.000000000000000
 C    -6.811000780000000    -1.208036109000000    0.000003000000000
 C    -6.811068613000000    1.208200765000000    0.000004000000000
 C    -8.202860720000000    -1.209212466000000    0.000010000000000
 C    -8.202932147000000    1.209294367000000    0.000010000000000
 C    -8.899530057000000    0.000024179000000    0.000013000000000
 O    -3.764354999000000    -1.148157012000000    -0.000003000000000
 O    -3.764298459000000    1.148245418000000    -0.000002000000000
 H    -8.745518773000001    -2.147914702000000    0.000012000000000
 H    -8.745642108000000    2.147968607000000    0.000012000000000
 H    -6.269501109000000    2.147891743000000    0.000001000000000
 H    -6.269378010000000    -2.147690622000000    0.000000000000000
 H    -9.984064534000000    -0.000005863000000    0.000018000000000




