%nproc=15
%mem=70GB
%chk=DBA18_CarboxylicAnhydride_Imide_freq.chk
#P B3LYP/6-311++G(d,p) EmpiricalDispersion=GD3 freq(noraman) SCF=YQC NoSymm

Restart from DBA18_CarboxylicAnhydride_Imide.log

0 1
 C   4.225697   0.716675   0.011465
 C   5.447724   1.423170   0.008666
 C   6.618816   0.697468   0.012566
 C   6.618882  -0.696865   0.015529
 C   5.447860  -1.422678   0.019394
 C   4.225766  -0.716299   0.016562
 H   5.456784   2.505641   0.004642
 H   5.457022  -2.505149   0.023417
 C  -1.492922   4.017817   0.015653
 C  -1.492109   5.429374   0.017869
 C  -2.706126   6.080707   0.014738
 C  -3.913708   5.383616   0.013149
 C  -3.956755   4.006572   0.009795
 C  -2.733953   3.301395   0.011795
 H  -0.559208   5.978491   0.020883
 H  -4.898767   3.473234   0.006778
 C  -1.492556  -4.017959   0.012275
 C  -1.491623  -5.429515   0.010047
 C  -2.705584  -6.080952   0.013244
 C  -3.913227  -5.383964   0.014909
 C  -3.956390  -4.006923   0.018278
 C  -2.733648  -3.301642   0.016204
 H  -0.558677  -5.978553   0.006973
 H  -4.898447  -3.473666   0.021357
 C  -2.738462  -1.891422   0.022105
 C  -2.742871  -0.675395   0.011606
 C  -2.742934   0.675147   0.016453
 C  -2.738645   1.891174   0.005929
 C  -0.269024  -3.316733   0.006492
 C   0.786240  -2.712448   0.017042
 C   1.955839  -2.037170   0.012306
 C   3.006819  -1.425464   0.022748
 C  -0.269331   3.316694   0.021356
 C   0.785978   2.712489   0.010764
 C   1.955641   2.037321   0.015603
 C   3.006683   1.425723   0.005234
 C   8.030566   1.172265   0.009639
 C   8.030678  -1.171527   0.018485
 N   8.826109   0.000408   0.014079
 O   8.437212  -2.306541   0.022711
 O   8.436992   2.307318   0.005443
 C   10.253950   0.000478   0.014107
 C   10.946191  -0.863386  -0.836141
 H   10.400322  -1.535727  -1.483648
 C   12.338136  -0.863149  -0.827212
 H   12.875056  -1.538343  -1.483273
 C   13.037524   0.000620   0.014158
 H   14.121373   0.000676   0.014178
 C   12.338017   0.864318   0.855502
 H   12.874844   1.539568   1.511582
 C   10.946071   0.864414   0.864379
 H   10.400110   1.536701   1.511864
 C  -5.030651   6.368979   0.010881
 C  -3.000768   7.540723   0.017248
 N  -4.413381   7.643783   0.014108
 O  -2.220975   8.460215   0.020240
 O  -6.216889   6.153629   0.007984
 C  -5.127174   8.880416   0.014199
 C  -4.725814   9.911308  -0.836996
 H  -3.871302   9.774194  -1.485297
 C  -5.421732   11.116801  -0.827941
 H  -5.105992   11.918999  -1.484731
 C  -6.518535   11.291245   0.014513
 H  -7.060300   12.229980   0.014635
 C  -6.916126   10.254130   0.856808
 H  -7.768603   10.381941   1.513720
 C  -6.220493   9.048470   0.865536
 H  -6.529185   8.239861   1.513722
 C  -3.000102  -7.540992   0.010722
 C  -5.030085  -6.369422   0.017216
 N  -4.412705  -7.644175   0.013941
 O  -6.216341  -6.154175   0.020191
 O  -2.220229  -8.460417   0.007685
 C  -5.126391  -8.880869   0.013882
 C  -6.219746  -9.049012  -0.837391
 H  -6.528548  -8.240425  -1.485551
 C  -6.915271  -10.254735  -0.828635
 H  -7.767776  -10.382614  -1.485496
 C  -6.517538  -11.291823   0.013627
 H  -7.059221  -12.230605   0.013529
 C  -5.420700  -11.117290   0.856017
 H  -5.104849  -11.919466   1.512780
 C  -4.724887  -9.911735   0.865042
 H  -3.870348  -9.774553   1.513292






