%nproc=15
%mem=70GB
%chk=Pyrene_BoronicAcid_BoronateEster.chk
#P B3LYP/6-311++G(d,p) EmpiricalDispersion=GD3 opt SCF=YQC

Comment

0 1
 C    0.000149000000000    3.538221000000000    0.000000000000000
 C    -1.208314000000000    2.825814000000000    0.000000000000000
 C    -1.234523000000000    1.426499000000000    0.000000000000000
 C    0.000173000000000    0.711855000000000    0.000000000000000
 C    1.234878000000000    1.426489000000000    0.000000000000000
 C    1.208633000000000    2.825798000000000    0.000000000000000
 H    -2.147734000000000    3.368891000000000    0.000000000000000
 H    2.148055000000000    3.368886000000000    0.000000000000000
 C    0.000167000000000    -0.711882000000000    0.000000000000000
 C    -1.234536000000000    -1.426518000000000    0.000000000000000
 C    -1.208310000000000    -2.825825000000000    0.000000000000000
 C    0.000175000000000    -3.538236000000000    0.000000000000000
 C    1.208656000000000    -2.825835000000000    0.000000000000000
 C    1.234871000000000    -1.426526000000000    0.000000000000000
 H    -2.147732000000000    -3.368910000000000    0.000000000000000
 H    2.148078000000000    -3.368915000000000    0.000000000000000
 C    2.463326000000000    0.679235000000000    0.000000000000000
 C    2.463326000000000    -0.679271000000000    0.000000000000000
 H    3.399127000000000    1.228117000000000    0.000000000000000
 H    3.399123000000000    -1.228155000000000    0.000000000000000
 C    -2.462978000000000    0.679245000000000    0.000000000000000
 C    -2.462987000000000    -0.679261000000000    0.000000000000000
 H    -3.398774000000000    1.228133000000000    0.000000000000000
 H    -3.398787000000000    -1.228142000000000    0.000000000000000
 B    0.000220771000000    5.076757998000000    -0.000000000000000
 O    1.146501260000000    5.868111802000000    0.000000000000000
 O    -1.145975738000000    5.868222193000000    -0.000000000000000
 C    0.697237259000000    7.170766221000000    0.000000000000000
 C    -0.696585739000000    7.170835771000000    -0.000000000000000
 C    1.430155691000000    8.341764651000000    0.000000000000000
 C    -1.429387305000000    8.341907338000000    -0.000000000000000
 C    0.699498329000000    9.536955110999999    0.000000000000000
 C    -0.698608669000000    9.537024874000000    -0.000000000000000
 H    2.512498034000000    8.328552643000000    0.000000000000000
 H    -2.511729960000000    8.328807345000000    -0.000000000000000
 H    1.231467429000000    10.480861568000000    0.000000000000000
 H    -1.230485568000000    10.480983415000001    -0.000000000000000
 B    0.000244115000000    -5.076772998000000    0.000000000000000
 O    -1.145963904000000    -5.868231765000000    0.000000000000000
 O    1.146513094000000    -5.868132231000000    0.000000000000000
 C    -0.696580620000000    -7.170845039000000    0.000000000000000
 C    0.697242379000000    -7.170786954000001    0.000000000000000
 C    -1.429391819000000    -8.341910578000000    0.000000000000000
 C    1.430151178000000    -8.341791412999999    0.000000000000000
 C    -0.698625014000000    -9.537034125999998    0.000000000000000
 C    0.699481984000000    -9.536975863000000    0.000000000000000
 H    -2.511735366000000    -8.328797681999999    -0.000000000000000
 H    2.512492629000000    -8.328592308999999    0.000000000000000
 H    -1.230507678000000    -10.480989292000000    0.000000000000000
 H    1.231445320000000    -10.480885696000000    0.000000000000000




