%nproc=15
%mem=70GB
%chk=ETTA_AmineBorane_Borazine_freq.chk
#P B3LYP/6-311++G(d,p) EmpiricalDispersion=GD3 freq(noraman) SCF=YQC

Restart from ETTA_AmineBorane_Borazine.log

0 1
 C  -0.000010   0.681416   0.000064
 C  -0.000052  -0.681416   0.000034
 C  -1.250604   1.479856  -0.129126
 C  -2.203116   1.193725  -1.116535
 H  -2.026802   0.372141  -1.799933
 C  -3.366737   1.943451  -1.232994
 H  -4.082871   1.715504  -2.013538
 C  -3.620778   3.002087  -0.356217
 C  -2.670306   3.306167   0.622336
 H  -2.857709   4.121561   1.311000
 C  -1.497793   2.565749   0.721668
 H  -0.768625   2.821106   1.482218
 C  -1.250674  -1.479799   0.129214
 C  -2.203231  -1.193601   1.116560
 H  -2.026944  -0.371987   1.799930
 C  -3.366869  -1.943302   1.233007
 H  -4.083019  -1.715292   2.013516
 C  -3.620905  -3.001973   0.356267
 C  -2.670387  -3.306127  -0.622217
 H  -2.857761  -4.121562  -1.310842
 C  -1.497858  -2.565737  -0.721532
 H  -0.768661  -2.821165  -1.482031
 C   1.250627   1.479761   0.129268
 C   1.497767   2.565823  -0.721333
 H   0.768520   2.821376  -1.481743
 C   2.670308   3.306190  -0.621982
 H   2.857637   4.121725  -1.310499
 C   3.620893   3.001877   0.356388
 C   3.366914   1.943060   1.232971
 H   4.083115   1.714918   2.013394
 C   2.203259   1.193389   1.116491
 H   2.027014   0.371665   1.799738
 C   1.250558  -1.479817  -0.129171
 C   2.203152  -1.193515  -1.116452
 H   2.026885  -0.371821  -1.799731
 C   3.366790  -1.943210  -1.232934
 H   4.082984  -1.715131  -2.013384
 C   3.620773  -3.001986  -0.356306
 C   2.670228  -3.306224   0.622126
 H   2.857584  -4.121722   1.310679
 C   1.497701  -2.565831   0.721483
 H   0.768480  -2.821313   1.481941
 N  -4.828733   3.763426  -0.463446
 B  -4.769518   5.202822  -0.522426
 B  -6.100170   3.084238  -0.510995
 H  -3.723283   5.767981  -0.499168
 N  -5.995621   5.929352  -0.623768
 H  -6.156191   1.898153  -0.447210
 N  -7.286745   3.872563  -0.621573
 B  -7.278069   5.300678  -0.678748
 H  -5.946469   6.935762  -0.673670
 H  -8.173288   3.391775  -0.646097
 H  -8.284403   5.932329  -0.767397
 N  -4.828855  -3.763307   0.463480
 B  -6.100309  -3.084146   0.511038
 B  -4.769631  -5.202699   0.522355
 H  -6.156371  -1.898054   0.447432
 N  -7.286883  -3.872495   0.621501
 H  -3.723376  -5.767837   0.499395
 N  -5.995729  -5.929259   0.623531
 B  -7.278197  -5.300616   0.678509
 H  -8.173429  -3.391712   0.645986
 H  -5.946556  -6.935675   0.673311
 H  -8.284521  -5.932294   0.767061
 N   4.828856   3.763188   0.463652
 B   6.100311   3.084013   0.511007
 B   4.769645   5.202572   0.522802
 H   6.156374   1.897943   0.447004
 N   7.286921   3.872356   0.621109
 H   3.723400   5.767728   0.499953
 N   5.995775   5.929123   0.623627
 B   7.278253   5.300471   0.678228
 H   8.173482   3.391579   0.645199
 H   5.946630   6.935541   0.673380
 H   8.284611   5.932144   0.766444
 N   4.828738  -3.763305  -0.463570
 B   4.769529  -5.202690  -0.522790
 B   6.100182  -3.084111  -0.510900
 H   3.723295  -5.767856  -0.499676
 N   5.995654  -5.929215  -0.623880
 H   6.156207  -1.898045  -0.446784
 N   7.286783  -3.872432  -0.621218
 B   7.278114  -5.300539  -0.678545
 H   5.946518  -6.935626  -0.673798
 H   8.173338  -3.391650  -0.645411
 H   8.284471  -5.932189  -0.766932






