%nproc=15
%mem=70GB
%chk=ETTA_AmineBorane_Borazine.chk
#P B3LYP/6-311++G(d,p) EmpiricalDispersion=GD3 opt SCF=YQC

Comment

0 1
 C    -0.673043696000000    -0.061281087000000    0.099838696000000
 C    0.676216304000000    0.084438913000000    -0.077921304000000
 C    -1.445563696000000    0.859668913000000    0.987758696000000
 C    -1.208593696000000    0.910808913000000    2.368608696000000
 H    -0.435593696000000    0.291168913000000    2.815748696000000
 C    -1.956453696000000    1.762468913000000    3.184708696000000
 H    -1.756043696000000    1.803278913000000    4.251888696000000
 C    -2.958213696000000    2.558248913000000    2.631708696000000
 C    -3.215433696000000    2.502618913000000    1.263248696000000
 H    -4.001643696000000    3.116068913000000    0.831638696000000
 C    -2.465153696000000    1.655188913000000    0.445338696000000
 H    -2.681203696000000    1.618718913000000    -0.619611304000000
 C    1.423956304000000    1.217358913000000    0.545288696000000
 C    1.186576304000000    2.544388913000000    0.160958696000000
 H    0.432056304000000    2.771628913000000    -0.587751304000000
 C    1.910456304000000    3.588888913000000    0.739918696000000
 H    1.711366304000000    4.615018913000000    0.443058696000000
 C    2.886286304000000    3.315958913000000    1.697168696000000
 C    3.142086304000000    1.999178913000000    2.075248696000000
 H    3.907026304000000    1.784298913000000    2.816488696000000
 C    2.417466304000000    0.953908913000000    1.499138696000000
 H    2.631376304000000    -0.068851087000000    1.799648696000000
 C    -1.412513696000000    -1.154241087000000    -0.600071304000000
 C    -1.922953696000000    -2.232601087000000    0.134698696000000
 H    -1.770443696000000    -2.283151087000000    1.209878696000000
 C    -2.626883696000000    -3.253351087000000    -0.507091304000000
 H    -3.013833696000000    -4.089711087000000    0.068518696000000
 C    -2.834543696000000    -3.198741087000000    -1.884751304000000
 C    -2.343603696000000    -2.122491087000001    -2.622201304000000
 H    -2.507323696000000    -2.077791087000000    -3.695421304000000
 C    -1.638713696000000    -1.101381087000000    -1.982691304000000
 H    -1.261323696000000    -0.266561087000000    -2.567421304000000
 C    1.439886304000000    -0.894691087000000    -0.907871304000000
 C    1.681336304000000    -2.196721087000000    -0.447761304000000
 H    1.299246304000000    -2.515401087000000    0.518518696000000
 C    2.406656304000000    -3.098111087000000    -1.228831304000000
 H    2.581246304000000    -4.108341087000000    -0.868861304000000
 C    2.903116304000000    -2.703191087000000    -2.470121304000000
 C    2.679966304000000    -1.406181087000000    -2.930431304000000
 H    3.069876304000000    -1.097111087000000    -3.896341304000000
 C    1.955636304000000    -0.502771087000000    -2.150401304000000
 H    1.790596304000000    0.507088913000000    -2.517471304000000
 N    -3.885742095000000    3.337280449000000    3.443297146000000
 B    -5.172504417000000    3.941200887000000    2.857896963000000
 B    -3.636162280000000    3.605132986000000    4.936328384000000
 H    -5.480934768000000    3.795082787000000    1.734668442000000
 N    -6.151765249000000    4.760711387000000    3.693244729000000
 H    -2.683082658000000    3.208500146000000    5.495291061000000
 N    -4.596836755000000    4.418377528000000    5.798949235999999
 B    -5.849995361000000    4.990391664000000    5.162530017000000
 H    -7.018165001000000    5.154303743000000    3.262511567000000
 H    -4.393582311000000    4.583309003000000    6.810171478000000
 H    -6.600730399000000    5.622851634000000    5.819729407000000
 N    3.765733829000000    4.349118628000000    2.231048768000000
 B    3.580884405000000    5.835638754000000    1.885709590000000
 B    4.934547859000000    4.018130598000000    3.173119907000000
 H    2.716716105000000    6.216079413000000    1.188142286000000
 N    4.494026080000000    6.928234776000000    2.434126712000000
 H    5.186367333000000    2.919156137000000    3.500166902000000
 N    5.863687583000000    5.087615293000000    3.739934449000000
 B    5.631011958000000    6.538262735000000    3.360302868000000
 H    4.337372183000000    7.929194497000000    2.179895076000000
 H    6.650432580000000    4.825876582000000    4.375237794000000
 H    6.344475658000000    7.375179006000000    3.791650123000000
 N    -3.705761660000000    -4.203490426000000    -2.482524590000000
 B    -4.015565660000000    -4.222363269000000    -3.988126078000000
 B    -4.370815423000000    -5.308115177000000    -1.645455301000000
 H    -3.557215403000000    -3.440208348000000    -4.733961725000000
 N    -4.926985353000000    -5.265325268000000    -4.628360051000000
 H    -4.222342842000000    -5.392019565000000    -0.483976246000000
 N    -5.284964198000001    -6.366427973000000    -2.255932909000000
 B    -5.554102262000000    -6.331108204000000    -3.748900860000000
 H    -5.113633909000000    -5.249161961000000    -5.655976513000000
 H    -5.722750667000001    -7.100868125000000    -1.655911365000000
 H    -6.261182597000000    -7.144259273000000    -4.232990200000000
 N    3.822579429000000    -3.536801897000000    -3.235337259000000
 B    4.640663148000000    -2.980541558000000    -4.411978243000000
 B    4.032529966000000    -5.025568648000000    -2.914913047000000
 H    4.578263547000000    -1.856607675000000    -4.745146380000000
 N    5.604900114000000    -3.840344677000000    -5.223976270000000
 H    3.456148530000000    -5.569422869000000    -2.048815664000000
 N    4.990680974000000    -5.911112274000000    -3.706200604000000
 B    5.769086403000000    -5.303964131000001    -4.858629433000000
 H    6.146668859000000    -3.428049620000000    -6.016184540000000
 H    5.105981859000000    -6.920241317000000    -3.462377999000000
 H    6.512914611000000    -5.979729826000000    -5.479580375000000




