%nproc=15
%mem=70GB
%chk=Triazine-TrisPhenyl_BoronicAcid_BoronateEster_freq.chk
#P B3LYP/6-311++G(d,p) EmpiricalDispersion=GD3 freq(noraman) SCF=YQC

Restart from Triazine-TrisPhenyl_BoronicAcid_BoronateEster.log

0 1
 C   2.575904  -4.985180  -0.000080
 C   1.173610  -4.899640   0.000030
 C   0.533068  -3.667800   0.000006
 C   1.282366  -2.482382  -0.000143
 C   2.682778  -2.556788  -0.000252
 C   3.317198  -3.791764  -0.000235
 C   0.601371  -1.164544  -0.000183
 N   1.363818  -0.063721  -0.000166
 C   0.707385   1.103409  -0.000083
 N  -0.627175   1.213304  -0.000065
 C  -1.309725   0.061242  -0.000145
 N  -0.737614  -1.149475  -0.000147
 C   1.508286   2.352010  -0.000041
 C   0.872760   3.602116   0.000603
 C   1.625335   4.768886   0.000680
 C   3.029499   4.723324   0.000052
 C   3.656311   3.465994  -0.000612
 C   2.909534   2.295529  -0.000644
 C  -2.791491   0.130514  -0.000103
 C  -3.443292   1.372226  -0.000392
 C  -4.830340   1.433640  -0.000358
 C  -5.605741   0.262094  -0.000019
 C  -4.943025  -0.976681   0.000290
 C  -3.556282  -1.044963   0.000226
 H  -0.546997  -3.606073   0.000069
 H   0.585198  -5.810479   0.000161
 H   4.400559  -3.838567  -0.000317
 H   3.257064  -1.639978  -0.000339
 H  -0.208353   3.641321   0.001071
 H   1.124359   5.730595   0.001207
 H   4.739317   3.411612  -0.001124
 H   3.395886   1.329188  -0.001144
 H  -2.849649   2.276625  -0.000657
 H  -5.324795   2.398719  -0.000619
 H  -5.525355  -1.891422   0.000554
 H  -3.049610  -2.000802   0.000454
 B   3.282377  -6.352137  -0.000027
 O   2.627531  -7.581332   0.000358
 O   4.663853  -6.528965  -0.000307
 C   3.624785  -8.532663   0.000292
 C   4.863033  -7.892732  -0.000110
 C   3.511373  -9.909342   0.000569
 C   6.051633  -8.596525  -0.000261
 C   4.709304  -10.635677   0.000420
 C   5.951212  -9.993847   0.000014
 H   2.543618  -10.394213   0.000884
 H   7.006929  -8.087547  -0.000576
 H   4.669988  -11.718433   0.000624
 H   6.857199  -10.588064  -0.000092
 B   3.860413   6.018409   0.000095
 O   5.252365   6.065507  -0.000581
 O   3.323183   7.303368   0.000761
 C   5.577988   7.404721  -0.000303
 C   4.404892   8.157450   0.000516
 C   6.827100   7.994476  -0.000726
 C   4.420501   9.538704   0.000958
 C   6.857575   9.395073  -0.000284
 C   5.681005   10.150034   0.000541
 H   7.730708   7.398539  -0.001363
 H   3.502235   10.111797   0.001592
 H   7.815078   9.902118  -0.000587
 H   5.742938   11.231732   0.000863
 B  -7.142788   0.333890   0.000003
 O  -7.879843   1.515615  -0.000345
 O  -7.986692  -0.774067   0.000313
 C  -9.202356   1.127669  -0.000224
 C  -9.267331  -0.264649   0.000179
 C  -10.337867   1.914256  -0.000447
 C  -10.471155  -0.942079   0.000383
 C  -11.565872   1.240017  -0.000244
 C  -11.631039  -0.156418   0.000164
 H  -10.273869   2.994790  -0.000761
 H  -10.508049  -2.023877   0.000695
 H  -12.483889   1.815476  -0.000404
 H  -12.598655  -0.643887   0.000311






