%nproc=15
%mem=70GB
%chk=TetraPhenylMethane_Hydrazide_Hydrazone_freq.chk
#P B3LYP/6-311++G(d,p) EmpiricalDispersion=GD3 freq(noraman) SCF=YQC

Restart from TetraPhenylMethane_Hydrazide_Hydrazone-1.log

0 1
 C   0.000020   0.420211  -0.000008
 C   3.295993   3.245697  -0.550111
 C  -0.528324  -2.427446  -3.279701
 C  -3.295829   3.245840   0.550122
 C   0.528214  -2.427469   3.279687
 C   2.940802   2.380130  -1.585526
 C  -1.559698  -1.546602  -2.953118
 C  -2.940674   2.380248   1.585527
 C   1.559632  -1.546675   2.953107
 C   1.905821   1.458026  -1.422507
 C  -1.404024  -0.613580  -1.925980
 C  -1.905729   1.458104   1.422501
 C   1.404006  -0.613645   1.925968
 C   1.201395   1.374086  -0.221384
 C  -0.216081  -0.537299  -1.199745
 C  -1.201304   1.374148   0.221378
 C   0.216071  -0.537308   1.199728
 C   1.536070   2.280507   0.798640
 C   0.810095  -1.440443  -1.525481
 C  -1.535941   2.280595  -0.798636
 C  -0.810151  -1.440400   1.525462
 C   2.563170   3.196425   0.642431
 C   0.668194  -2.354735  -2.555475
 C  -2.563005   3.196551  -0.642420
 C  -0.668298  -2.354699   2.555458
 H   3.433174   2.436824  -2.550154
 H  -2.486433  -1.545867  -3.516536
 H  -3.433044   2.436951   2.550157
 H   2.486365  -1.545985   3.516527
 H   1.646893   0.819075  -2.255225
 H  -2.224676   0.054202  -1.704461
 H  -1.646825   0.819137   2.255214
 H   2.224694   0.054094   1.704451
 H   0.971109   2.273171   1.723230
 H   1.732194  -1.422913  -0.956739
 H  -0.970985   2.273241  -1.723229
 H  -1.732247  -1.422829   0.956716
 H   2.806760   3.898273   1.430534
 H   1.475198  -3.028611  -2.815798
 H  -2.806568   3.898415  -1.430517
 H  -1.475336  -3.028537   2.815778
 C   4.384621   4.276395  -0.651473
 O   4.375202   5.299005   0.000760
 N   5.400635   3.945355  -1.536858
 H   5.429094   3.010522  -1.933822
 N   6.429086   4.797586  -1.768989
 C   7.375257   4.388438  -2.527523
 C   8.527297   5.230521  -2.852646
 H   7.360652   3.382457  -2.969851
 C   9.530287   4.723531  -3.690533
 C   10.639641   5.499439  -4.018748
 H   9.440499   3.716899  -4.086991
 C   10.758585   6.791834  -3.512608
 H   11.408117   5.095550  -4.667975
 C   9.762324   7.304958  -2.676313
 H   11.620644   7.398227  -3.766418
 C   8.655053   6.535388  -2.346714
 H   9.853161   8.310676  -2.281637
 H   7.879178   6.925552  -1.699483
 C  -0.602182  -3.428273  -4.397221
 O   0.379869  -3.787852  -5.012634
 N  -1.879501  -3.907266  -4.647035
 H  -2.625303  -3.693118  -3.990803
 N  -2.112800  -4.780299  -5.658299
 C  -3.294848  -5.259693  -5.762684
 C  -3.659793  -6.199782  -6.823320
 H  -4.089748  -4.982498  -5.056247
 C  -4.972993  -6.686552  -6.883300
 C  -5.352268  -7.583105  -7.879641
 H  -5.700263  -6.361352  -6.145851
 C  -4.422085  -8.003299  -8.827672
 H  -6.370963  -7.952089  -7.914838
 C  -3.110175  -7.522368  -8.774759
 H  -4.714197  -8.701074  -9.604224
 C  -2.727891  -6.628642  -7.783796
 H  -2.384949  -7.848659  -9.511689
 H  -1.713511  -6.252078  -7.735550
 C  -4.384414   4.276581   0.651492
 O  -4.374958   5.299192  -0.000738
 N  -5.400440   3.945578   1.536878
 H  -5.428935   3.010746   1.933840
 N  -6.428859   4.797848   1.769012
 C  -7.375042   4.388737   2.527551
 C  -8.527051   5.230861   2.852675
 H  -7.360471   3.382756   2.969883
 C  -9.530054   4.723911   3.690570
 C  -10.639380   5.499860   4.018784
 H  -9.440299   3.717279   4.087035
 C  -10.758283   6.792254   3.512635
 H  -11.407867   5.096001   4.668018
 C  -9.762009   7.305338   2.676331
 H  -11.620321   7.398678   3.766444
 C  -8.654765   6.535729   2.346733
 H  -9.852814   8.311056   2.281647
 H  -7.878880   6.925861   1.699495
 C   0.602021  -3.428301   4.397206
 O  -0.380048  -3.787825   5.012622
 N   1.879315  -3.907359   4.647019
 H   2.625128  -3.693251   3.990787
 N   2.112569  -4.780405   5.658283
 C   3.294591  -5.259863   5.762666
 C   3.659487  -6.199972   6.823301
 H   4.089506  -4.982711   5.056228
 C   4.972660  -6.686815   6.883278
 C   5.351888  -7.583389   7.879618
 H   5.699946  -6.361655   6.145828
 C   4.421683  -8.003532   8.827651
 H   6.370562  -7.952429   7.914814
 C   3.109800  -7.522529   8.774741
 H   4.713758  -8.701323   9.604202
 C   2.727563  -6.628782   7.783779
 H   2.384557  -7.848780   9.511672
 H   1.713203  -6.252162   7.735534






