%nproc=15
%mem=70GB
%chk=PMDA_PrimaryAmine_Imine_freq.chk
#P B3LYP/6-311++G(d,p) EmpiricalDispersion=GD3 freq(noraman) SCF=YQC NoSymm

Restart from PMDA_PrimaryAmine_Imine.log

0 1
 C   2.674811  -0.741781  -0.592893
 C   1.224359  -0.468367  -0.370024
 C   0.119200  -1.120647  -0.903560
 H   0.208388  -1.957997  -1.584030
 C  -1.109446  -0.616323  -0.494301
 C  -2.482104  -1.068791  -0.867953
 C  -1.224561   0.463168   0.382111
 C  -2.675025   0.736543   0.605013
 C  -0.119404   1.115446   0.915642
 H  -0.208579   1.952796   1.596114
 C   1.109244   0.611120   0.506380
 C   2.481891   1.063566   0.880070
 N  -3.371681  -0.216498  -0.173329
 N   3.371492   0.211268   0.185445
 O  -3.170576   1.589304   1.297980
 O  -2.789867  -1.971541  -1.604607
 O   2.789618   1.966304   1.616752
 O   3.170368  -1.594546  -1.285846
 C  -4.794340  -0.305680  -0.246293
 C   4.794139   0.300391   0.258459
 C  -5.555979   0.852762  -0.402445
 C  -6.941243   0.766925  -0.461389
 H  -5.067703   1.815394  -0.470756
 C  -7.585036  -0.477996  -0.378778
 H  -7.527143   1.666520  -0.608265
 C  -6.802500  -1.636021  -0.264823
 C  -5.420670  -1.552618  -0.175968
 H  -7.298606  -2.598174  -0.230376
 H  -4.826585  -2.450692  -0.076609
 C   5.420573   1.547296   0.188419
 C   6.802415   1.630564   0.277301
 H   4.826585   2.445450   0.089252
 C   7.584863   0.472465   0.390986
 H   7.298586   2.592691   0.243082
 C   6.940982  -0.772435   0.473237
 C   5.555716  -0.858153   0.414270
 H   7.526806  -1.672122   0.619847
 H   5.067364  -1.820768   0.482300
 N  -8.977133  -0.625124  -0.460914
 C  -9.746163   0.187625   0.154232
 C  -11.208806   0.129774   0.057811
 C  -11.979205   1.043133   0.790256
 C  -13.369830   1.014633   0.718178
 C  -14.003258   0.071000  -0.088121
 C  -13.242261  -0.844251  -0.822106
 C  -11.856055  -0.817167  -0.752361
 H  -9.343732   0.973529   0.808972
 H  -11.484863   1.777424   1.418573
 H  -13.956563   1.725448   1.288663
 H  -15.085621   0.046184  -0.146473
 H  -13.736567  -1.577714  -1.449140
 H  -11.253419  -1.519192  -1.315469
 N   8.976980   0.619448   0.473148
 C   9.745941  -0.193228  -0.142201
 C   11.208583  -0.135534  -0.045733
 C   11.978913  -1.048825  -0.778339
 C   13.369538  -1.020469  -0.706240
 C   14.003045  -0.077051   0.100248
 C   13.242121   0.838135   0.834392
 C   11.855916   0.811197   0.764620
 H   9.343439  -0.978957  -0.797092
 H   11.484512  -1.782947  -1.406810
 H   13.956213  -1.731230  -1.276853
 H   15.085410  -0.052348   0.158616
 H   13.736486   1.571437   1.461568
 H   11.253341   1.513178   1.327848






