%nproc=15
%mem=70GB
%chk=Triptycene_Catechol_BoronateEster_freq.chk
#P B3LYP/6-311++G(d,p) EmpiricalDispersion=GD3 freq(noraman) SCF=YQC

Restart from Triptycene_Catechol_BoronateEster.log

0 1
 C  -2.546787  -0.510122   1.436036
 C  -3.696749  -0.739507   0.695621
 C  -3.696776  -0.739504  -0.695569
 C  -2.546838  -0.510158  -1.436032
 C   1.712071  -1.949424   1.436076
 C  -0.002308  -0.001609   1.291368
 C  -0.002292  -0.001662  -1.291440
 C   0.449995   1.334771  -0.703197
 C   0.449918   1.334783   0.703053
 C   0.829979   2.456143  -1.436079
 C  -1.385730  -0.278330   0.703115
 C  -1.385766  -0.278266  -0.703170
 C   0.929243  -1.061135  -0.703052
 C   0.929315  -1.061090   0.703203
 H  -0.002294  -0.001683  -2.381319
 H   0.834362   2.468419  -2.518992
 C   2.487232  -2.829277   0.695683
 C   0.829739   2.456186   1.435985
 C   1.206194   3.566736  -0.695607
 C   1.711994  -1.949507  -1.435925
 C   2.487197  -2.829306  -0.695498
 H   0.833981   2.468542   2.518899
 C   1.206077   3.566767   0.695549
 H   1.720634  -1.959133  -2.518841
 H  -0.002328  -0.001435   2.381219
 H   1.720824  -1.959049   2.519017
 H  -2.559629  -0.512582   2.518977
 H  -2.559609  -0.512739  -2.518971
 B  -5.752780  -1.149921   0.000056
 C  -7.260029  -1.451383   0.000013
 C  -7.963873  -1.592569  -1.207768
 C  -7.964016  -1.592293   1.207743
 C  -9.328723  -1.866041  -1.209082
 C  -9.328866  -1.865767   1.208961
 C  -10.012146  -2.002878  -0.000085
 O  -4.974259  -0.994468  -1.145879
 O  -4.974271  -0.994301   1.145965
 H  -9.860731  -1.972791  -2.147876
 H  -9.860985  -1.972298   2.147717
 H  -7.432969  -1.485840   2.147436
 H  -7.432715  -1.486327  -2.147421
 H  -11.075565  -2.215989  -0.000125
 B   1.878826   5.552481  -0.000026
 C   2.372024   7.008300  -0.000020
 C   2.602610   7.688195  -1.207751
 C   2.602348   7.688266   1.207721
 C   3.049453   9.006503  -1.209006
 C   3.049190   9.006575   1.208997
 C   3.273096   9.666600   0.000000
 O   1.624118   4.800549  -1.145952
 O   1.623920   4.800611   1.145901
 H   3.223762   9.520393  -2.147780
 H   3.223293   9.520519   2.147779
 H   2.428413   7.175316   2.147399
 H   2.428879   7.175190  -2.147436
 H   3.621254   10.693763   0.000007
 B   3.873891  -4.401788   0.000101
 C   4.890702  -5.554510   0.000040
 C   5.365693  -6.092731  -1.207736
 C   5.365795  -6.092798   1.207747
 C   6.286823  -7.136349  -1.209073
 C   6.286925  -7.136415   1.208952
 C   6.748089  -7.658887  -0.000095
 O   3.348629  -3.806474  -1.145829
 O   3.348667  -3.806454   1.146023
 H   6.645890  -7.543150  -2.147871
 H   6.646071  -7.543267   2.147698
 H   5.007444  -5.686695   2.147442
 H   5.007261  -5.686577  -2.147377
 H   7.465818  -8.471991  -0.000149






