%nproc=15
%mem=70GB
%chk=Adamantane_Nitrile_Triazine_freq.chk
#P B3LYP/6-311++G(d,p) EmpiricalDispersion=GD3 freq(noraman) SCF=YQC

Restart from Adamantane_Nitrile_Triazine.log

0 1
 C   1.781946   0.000001   0.000000
 C  -1.782406  -0.000001  -0.000000
 H  -2.425530   0.221710  -0.855301
 H  -2.425530  -0.221714   0.855300
 C   0.892241   0.310105  -1.228820
 C   0.892241  -0.310104   1.228820
 C  -0.892732  -1.228787  -0.310103
 C  -0.892734   1.228785   0.310102
 C   0.004406   1.527961  -0.917968
 C   0.004408  -1.527961   0.917968
 C  -0.004849  -0.917967  -1.527944
 C  -0.004851   0.917967   1.527944
 H   0.627642   2.403682  -0.716874
 H   0.627646  -2.403681   0.716874
 H  -0.628111  -0.716917  -2.403679
 H  -0.628113   0.716916   2.403679
 H  -0.619644   1.771676  -1.778699
 H  -0.619642  -1.771677   1.778699
 H   0.619187  -1.778688  -1.771636
 H   0.619183   1.778690   1.771636
 H   2.425042  -0.855321  -0.221735
 H   2.425041   0.855325   0.221736
 C   1.788442   0.559233  -2.427616
 N   2.627422  -0.430587  -2.779019
 C   3.394460  -0.181828  -3.835065
 N   1.709961   1.727998  -3.074561
 C   2.530415   1.860039  -4.118838
 N   3.396238   0.945752  -4.553624
 H   2.486915   2.799741  -4.662614
 H   4.082617  -0.964239  -4.143087
 C   1.788441  -0.559230   2.427617
 N   2.627420   0.430592   2.779021
 C   3.394457   0.181834   3.835067
 N   1.709963  -1.727995   3.074562
 C   2.530416  -1.860035   4.118839
 N   3.396237  -0.945746   4.553626
 H   2.486918  -2.799737   4.662616
 H   4.082613   0.964245   4.143089
 C  -1.788715  -2.427765  -0.559161
 N  -1.709041  -3.075653  -1.727321
 C  -2.529093  -4.120261  -1.859219
 N  -2.628428  -2.778614   0.430236
 C  -3.394958  -3.835076   0.181678
 N  -3.395571  -4.554553  -0.945317
 H  -4.083719  -4.142638   0.963738
 H  -2.484634  -4.664788  -2.798441
 C  -1.788720   2.427762   0.559160
 N  -1.709047   3.075649   1.727320
 C  -2.529101   4.120256   1.859217
 N  -2.628432   2.778609  -0.430238
 C  -3.394964   3.835070  -0.181680
 N  -3.395579   4.554547   0.945315
 H  -4.083725   4.142632  -0.963740
 H  -2.484644   4.664784   2.798440






