%nproc=15
%mem=70GB
%chk=Adamantane_Nitrile_Triazine.chk
#P B3LYP/6-311++G(d,p) EmpiricalDispersion=GD3 opt SCF=YQC

Comment

0 1
 C    -0.000001000000000    -0.000001000000000    1.760854000000000
 C    -0.000001000000000    -0.000001000000000    -1.760853000000000
 H    0.583501000000000    -0.548807000000000    -2.343561000000000
 H    -0.583501000000000    0.548807000000000    -2.343561000000000
 C    0.925717000000000    -0.871783000000000    0.897399000000000
 C    -0.925717000000000    0.871783000000000    0.897399000000000
 C    -0.871783000000000    -0.925717000000000    -0.897399000000000
 C    0.871783000000000    0.925717000000000    -0.897399000000000
 C    1.773370000000000    0.051568000000000    -0.002829000000000
 C    -1.773370000000000    -0.051569000000000    -0.002829000000000
 C    0.051568000000000    -1.773370000000000    0.002829000000000
 C    -0.051569000000000    1.773370000000000    0.002829000000000
 H    2.340312000000000    0.633966000000000    0.562907000000000
 H    -2.340313000000000    -0.633966000000000    0.562907000000000
 H    0.633966000000000    -2.340313000000000    -0.562907000000000
 H    -0.633966000000000    2.340312000000000    -0.562907000000000
 H    2.368699000000000    -0.498341000000000    -0.571393000000000
 H    -2.368700000000000    0.498341000000000    -0.571393000000000
 H    -0.498341000000000    -2.368700000000000    0.571393000000000
 H    0.498341000000000    2.368699000000000    0.571393000000000
 H    -0.548807000000000    -0.583501000000000    2.343561000000000
 H    0.548807000000000    0.583501000000000    2.343561000000000
 C    1.805924873000000    -1.700704406000000    1.750676898000000
 N    1.232639071000000    -2.553104167000000    2.618254518000000
 C    2.075521610000000    -3.269108016000000    3.355848176000000
 N    3.136684995000000    -1.561545217000000    1.617297950000000
 C    3.873246980000000    -2.332873099000000    2.410739417000000
 N    3.408906372000000    -3.210192077000000    3.304519048000000
 H    4.952350750000000    -2.240810611000000    2.323827397000000
 H    1.638990795000000    -3.966304152000000    4.065674693000000
 C    -1.805924742000000    1.700704831000000    1.750676620000000
 N    -1.232638799000000    2.553103836000000    2.618254890000000
 C    -2.075521225000000    3.269108119000000    3.355848256000000
 N    -3.136684892000000    1.561546764000000    1.617296783000000
 C    -3.873246755000000    2.332874975000000    2.410738044000000
 N    -3.408906002000000    3.210193276000000    3.304518264000000
 H    -4.952350545000000    2.240813389000000    2.323825311000000
 H    -1.638990295000000    3.966303663000000    4.065675283000000
 C    -1.700707438000000    -1.805919446000000    -1.750679551000000
 N    -1.478698405000000    -3.131219052000000    -1.703500809000000
 C    -2.254717003000000    -3.868049599000000    -2.492191353000000
 N    -2.636035672000000    -1.237955153000000    -2.532123972000000
 C    -3.347419365000000    -2.080444321000000    -3.274528757000000
 N    -3.210273174000000    -3.408762869000000    -3.304588297000000
 H    -4.110614766000000    -1.648223713000000    -3.915787108000000
 H    -2.096656653000000    -4.942840631000000    -2.473848747000000
 C    1.700707438000000    1.805919446000000    -1.750679551000000
 N    1.478698405000000    3.131219052000000    -1.703500809000000
 C    2.254717003000000    3.868049599000000    -2.492191353000000
 N    2.636035672000000    1.237955153000000    -2.532123972000000
 C    3.347419365000000    2.080444321000000    -3.274528757000000
 N    3.210273174000000    3.408762869000000    -3.304588297000000
 H    4.110614766000000    1.648223713000000    -3.915787108000000
 H    2.096656653000000    4.942840631000000    -2.473848747000000




