%nproc=15
%mem=70GB
%chk=TetraPhenylSilane_Hydrazide_Hydrazone_freq.chk
#P B3LYP/6-311++G(d,p) EmpiricalDispersion=GD3 freq(noraman) SCF=YQC

Restart from TetraPhenylSilane_Hydrazide_Hydrazone-2.log

0 1
Si   0.000043   0.000062  -0.310034
 C  -3.429938   1.745112  -3.027272
 C   1.698848   3.463085   2.394442
 C   3.430060  -1.744967  -3.027239
 C  -1.698799  -3.462982   2.394393
 C  -3.006618   2.443416  -1.891045
 C   2.378558   3.078078   1.233695
 C   3.006724  -2.443281  -1.891025
 C  -2.378493  -3.077966   1.233640
 C  -1.979246   1.938992  -1.096488
 C   1.891123   2.038095   0.444729
 C   1.979343  -1.938863  -1.096476
 C  -1.891047  -2.037978   0.444688
 C  -1.348740   0.726846  -1.410661
 C   0.717750   1.353916   0.791331
 C   1.348841  -0.726715  -1.410649
 C  -0.717679  -1.353802   0.791311
 C  -1.768152   0.048426  -2.568695
 C   0.045349   1.752954   1.959841
 C   1.768269  -0.048285  -2.568671
 C  -0.045293  -1.752848   1.959827
 C  -2.788183   0.549589  -3.368344
 C   0.519433   2.797306   2.744372
 C   2.788311  -0.549441  -3.368311
 C  -0.519388  -2.797206   2.744344
 H  -3.440972   3.404823  -1.638669
 H   3.269163   3.608361   0.913816
 H   3.441077  -3.404689  -1.638650
 H  -3.269094  -3.608246   0.913745
 H  -1.657032   2.510031  -0.232335
 H   2.433396   1.763555  -0.453822
 H   1.657118  -2.509908  -0.232332
 H  -2.433308  -1.763430  -0.453868
 H  -1.281127  -0.876822  -2.860414
 H  -0.860150   1.237898   2.264837
 H   1.281249   0.876966  -2.860389
 H   0.860202  -1.237795   2.264839
 H  -3.096711   0.034695  -4.270185
 H  -0.011836   3.115538   3.633278
 H   3.096852  -0.034540  -4.270142
 H   0.011869  -3.115445   3.633255
 C  -4.513930   2.232647  -3.949082
 O  -4.539651   1.952003  -5.128709
 N  -5.480616   3.008951  -3.326897
 H  -5.482599   3.081685  -2.313401
 N  -6.499874   3.554825  -4.035101
 C  -7.402056   4.184429  -3.381107
 C  -8.540199   4.820223  -4.046150
 H  -7.357965   4.275446  -2.286766
 C  -9.491637   5.499899  -3.272903
 C  -10.586502   6.115348  -3.875296
 H  -9.372843   5.546889  -2.194841
 C  -10.742475   6.057856  -5.258400
 H  -11.314932   6.638137  -3.265999
 C  -9.797819   5.381827  -6.036756
 H  -11.593465   6.535917  -5.730144
 C  -8.705071   4.767332  -5.440771
 H  -9.917687   5.336123  -7.113332
 H  -7.969138   4.241562  -6.036654
 C   2.138563   4.598091   3.277473
 O   1.352046   5.270419   3.910737
 N   3.511195   4.791524   3.309972
 H   4.119394   4.097897   2.883668
 N   4.056927   5.806799   4.024681
 C   5.333959   5.863637   4.087624
 C   6.027964   6.923256   4.820650
 H   5.965817   5.115252   3.589207
 C   7.429503   6.931253   4.846920
 C   8.120241   7.925845   5.535395
 H   7.980654   6.154828   4.325469
 C   7.416860   8.924051   6.205783
 H   9.204189   7.920766   5.547859
 C   6.018737   8.923037   6.184516
 H   7.951624   9.699453   6.742464
 C   5.326272   7.934001   5.499557
 H   5.469835   9.699038   6.706047
 H   4.243408   7.925890   5.478757
 C   4.514071  -2.232493  -3.949032
 O   4.539760  -1.951927  -5.128678
 N   5.480668  -3.008917  -3.326860
 H   5.482640  -3.081672  -2.313365
 N   6.499857  -3.554906  -4.035074
 C   7.401965  -4.184629  -3.381090
 C   8.540031  -4.820547  -4.046145
 H   7.357865  -4.275656  -2.286751
 C   9.491389  -5.500349  -3.272909
 C   10.586180  -6.115920  -3.875313
 H   9.372590  -5.547343  -2.194848
 C   10.742158  -6.058425  -5.258416
 H   11.314548  -6.638806  -3.266025
 C   9.797582  -5.382271  -6.036761
 H   11.593090  -6.536581  -5.730169
 C   8.704908  -4.767655  -5.440765
 H   9.917455  -5.336564  -7.113336
 H   7.969037  -4.241786  -6.036639
 C  -2.138527  -4.597994   3.277411
 O  -1.352018  -5.270324   3.910683
 N  -3.511159  -4.791422   3.309895
 H  -4.119351  -4.097791   2.883589
 N  -4.056902  -5.806698   4.024596
 C  -5.333934  -5.863531   4.087527
 C  -6.027950  -6.923150   4.820543
 H  -5.965785  -5.115141   3.589107
 C  -7.429489  -6.931141   4.846801
 C  -8.120237  -7.925733   5.535266
 H  -7.980632  -6.154712   4.325349
 C  -7.416866  -8.923944   6.205656
 H  -9.204186  -7.920650   5.547721
 C  -6.018743  -8.922936   6.184401
 H  -7.951638  -9.699347   6.742330
 C  -5.326268  -7.933900   5.499452
 H  -5.469849  -9.698942   6.705934
 H  -4.243404  -7.925794   5.478661






