%nproc=15
%mem=70GB
%chk=TrisPhenyl_Aldehyde_Hydrazone.chk
#P B3LYP/6-311++G(d,p) EmpiricalDispersion=GD3 opt SCF=YQC

Comment

0 1
 C    5.413628598000000    -1.872546979000000    -0.010594081000000
 C    5.035722949999999    -0.755661278000000    0.753536436000000
 C    3.723673695000000    -0.300430655000000    0.759525264000000
 C    2.735803795999999    -0.944625681000000    0.000449131000000
 C    3.108315992000000    -2.059076085000000    -0.765208093000000
 C    4.420719166000000    -2.513357956000000    -0.770224134000000
 C    1.334053259000000    -0.458848890000000    0.000402830000000
 C    0.268355259000000    -1.366873890000000    0.008860830000000
 C    -1.059173741000000    -0.922488890000000    0.008337830000000
 C    -1.309241741000000    0.453656110000000    0.006809830000000
 C    -0.264218741000000    1.383363110000000    0.003920830000000
 C    1.053270259000000    0.911980110000000    -0.001354170000000
 C    -0.547166741000000    2.832910110000000    0.023508830000000
 C    0.132648259000000    3.710843110000000    -0.833951170000000
 C    -0.134981741000000    5.073690110000000    -0.817152170000000
 C    -1.095013741000000    5.616633110000000    0.054395830000000
 C    -1.773249741000000    4.731796110000000    0.910653830000000
 C    -1.504821741000000    3.368908110000000    0.897304830000000
 C    -2.182774741000000    -1.891955890000000    -0.017346170000000
 C    -3.315488741000000    -1.662366890000000    -0.812060170000000
 C    -4.366923741000000    -2.569668890000000    -0.831200170000000
 C    -4.330026741000000    -3.741083890000000    -0.056511170000000
 C    -3.194045741000000    -3.964973890000000    0.739344830000000
 C    -2.141176741000000    -3.059528890000000    0.758579830000000
 H    0.474380259000000    -2.429560890000000    -0.040814170000000
 H    1.873134259000000    1.618471110000000    0.074149830000000
 H    -2.335361741000000    0.804210110000000    -0.020704170000000
 H    0.839454259000000    3.316212110000000    -1.556644170000000
 H    -2.004881741000000    2.721095110000000    1.609926830000000
 H    0.396903259000000    5.726432110000000    -1.500808170000000
 H    -2.509284741000000    5.119474110000000    1.606548830000000
 H    4.680359519000000    -3.384593294000000    -1.361290287000000
 H    2.355934167000000    -2.588063678000000    -1.339179593000000
 H    5.783140304000000    -0.232983007000000    1.339887964000000
 H    3.464345167000000    0.579450163000000    1.337108744000000
 H    -1.287700741000000    -3.244167890000000    1.400987830000000
 H    -3.142543741000000    -4.854378890000000    1.357384830000000
 H    -5.225637741000000    -2.375433890000000    -1.464217170000000
 H    -3.358715741000000    -0.779456890000000    -1.439657170000000
 H    13.446153087000001    -3.795524529000000    -0.028321093000000
 C    12.755465339000001    -4.448210773000000    -0.557211765000000
 C    13.233488015000001    -5.596161926000000    -1.186128040000000
 H    14.292397854000001    -5.839290012000000    -1.145534431000000
 C    12.355098426000000    -6.426720808000000    -1.876792359000000
 H    12.724728383000000    -7.317546620000000    -2.378567268000000
 C    10.995674256999999    -6.111924524000000    -1.931170255000000
 H    10.321018499999999    -6.767918124000000    -2.479903194000000
 C    10.498370116000000    -4.962474135000000    -1.296358932000000
 C    9.031731080000000    -4.681200142000000    -1.417089878000000
 C    11.395172187000000    -4.126262363000000    -0.615313053000000
 H    11.079279720000001    -3.205788408000000    -0.138675076000000
 O    8.363150465000000    -5.339784863000000    -2.210649929000000
 N    8.518836050999999    -3.677743212000000    -0.605337881000000
 H    9.082544048999999    -3.208139380000000    0.087564867000000
 N    7.202666392000000    -3.338855248000000    -0.712572104000000
 C    6.810901202000000    -2.346662139000000    0.019527243000000
 H    7.505244424000000    -1.806181046000000    0.687546464000000
 H    -3.456139169000000    13.529662605000000    0.223681039000000
 C    -2.612153791000000    13.253606460000000    -0.404216983000000
 C    -1.937973760000000    14.235853841999999    -1.127061765000000
 H    -2.253168617000000    15.274284592000001    -1.061009263000000
 C    -0.866289205000000    13.884826210000000    -1.943569783000000
 H    -0.344046855000000    14.645767604000000    -2.518205420000000
 C    -0.464197833000000    12.550329212999999    -2.030333936000000
 H    0.372324139000000    12.289580802000000    -2.677510178000000
 C    -1.129355741000000    11.550715110000001    -1.302412494000000
 C    -0.652641062000000    10.139542830000000    -1.463834280000000
 C    -2.216201363000000    11.914729698000000    -0.493964879000000
 H    -2.793643257000000    11.185129141999999    0.061452082000000
 O    0.154702639000000    9.882634688000000    -2.354152079000000
 N    -1.164151136000000    9.201617605999999    -0.576376031000000
 H    -1.768528159000000    9.461457493999999    0.188882311000000
 N    -0.810466530000000    7.891871866000000    -0.710986950000000
 C    -1.382009361000000    7.063500547000001    0.102054459000000
 H    -2.115350408000000    7.400531620000000    0.856443593000000
 H    -10.021384683999999    -9.726418990000001    -0.118277443000000
 C    -10.226812101000000    -8.809762037000000    -0.666286428000000
 C    -11.444340170000000    -8.657419312000000    -1.326778900000000
 H    -12.186670026000000    -9.450997320999999    -1.291714911000000
 C    -11.705595975000000    -7.491676955000000    -2.041763996000000
 H    -12.649424488999999    -7.372522850000000    -2.568038666000000
 C    -10.750233504000001    -6.474257580000000    -2.088966644000000
 H    -10.966089770000000    -5.570115409000000    -2.656882870000000
 C    -9.521878410999999    -6.610581015000000    -1.422563831000000
 C    -8.540151518000000    -5.484616075000000    -1.537177731000000
 C    -9.264740023000000    -7.795233359999999    -0.717009977000000
 H    -8.321626169000000    -7.976124563000000    -0.214955453000000
 O    -8.755467425999999    -4.588172182000000    -2.349888525000000
 N    -7.434443178000000    -5.531556593000000    -0.698050757000000
 H    -7.327560800000000    -6.244069524000000    0.008568068000000
 N    -6.478682844000000    -4.564443265000000    -0.797352314000000
 C    -5.441573209000000    -4.711746208000000    -0.038009157000000
 H    -5.338325677000000    -5.573187620000000    0.645906512000000




