%nproc=15
%mem=70GB
%chk=TrisPhenyl_Aldehyde_Hydrazone_freq.chk
#P B3LYP/6-311++G(d,p) EmpiricalDispersion=GD3 freq(noraman) SCF=YQC

Restart from TrisPhenyl_Aldehyde_Hydrazone.log

0 1
 C  -5.643777   0.936862  -0.521965
 C  -4.784314   1.729847  -1.293878
 C  -3.412614   1.504134  -1.293389
 C  -2.853697   0.478493  -0.519633
 C  -3.721149  -0.313298   0.254434
 C  -5.088690  -0.092526   0.256772
 C  -1.391037   0.233569  -0.517657
 C  -0.886726  -1.072084  -0.516752
 C   0.490851  -1.319561  -0.517931
 C   1.369371  -0.229957  -0.518787
 C   0.894971   1.086809  -0.519377
 C  -0.487909   1.302820  -0.518081
 C   1.838374   2.231005  -0.522478
 C   1.586505   3.378680   0.250784
 C   2.461712   4.452418   0.252600
 C   3.630813   4.417793  -0.525983
 C   3.887562   3.276518  -1.297330
 C   3.006056   2.201606  -1.296191
 C   1.010192  -2.708685  -0.519435
 C   2.131482  -3.062888   0.252465
 C   2.624089  -4.357585   0.255518
 C   2.008285  -5.354185  -0.520217
 C   0.889858  -5.007538  -1.289836
 C   0.399545  -3.706720  -1.290168
 H  -1.576327  -1.907621  -0.514049
 H  -0.866876   2.317742  -0.516212
 H   2.437772  -0.409426  -0.517574
 H   0.702962   3.414338   0.877832
 H   3.214075   1.340647  -1.920868
 H   2.260884   5.326554   0.859860
 H   4.781033   3.233332  -1.912437
 H  -5.744955  -0.703463   0.864453
 H  -3.309685  -1.095915   0.881572
 H  -5.194130   2.524933  -1.909019
 H  -2.771386   2.114515  -1.918687
 H  -0.451297  -3.457625  -1.913675
 H   0.404674  -5.760900  -1.902659
 H   3.482792  -4.619492   0.861516
 H   2.605018  -2.314366   0.877421
 H  -13.418975   3.445603   0.311572
 C  -13.201002   2.384464   0.351584
 C  -14.238962   1.455107   0.315461
 H  -15.266057   1.792380   0.233629
 C  -13.954608   0.091194   0.398307
 H  -14.760693  -0.633374   0.379506
 C  -12.637951  -0.341734   0.511753
 H  -12.399679  -1.394917   0.596705
 C  -11.588801   0.584178   0.524395
 C  -10.193910   0.042643   0.662159
 C  -11.880098   1.952017   0.453056
 H  -11.086531   2.688410   0.518001
 O  -9.948199  -0.995620   1.238938
 N  -9.221117   0.826296   0.054624
 H  -9.509278   1.586401  -0.555247
 N  -7.909449   0.496516   0.132489
 C  -7.081609   1.198844  -0.546437
 H  -7.419894   2.032054  -1.178068
 H   9.696317   9.888873   0.314465
 C   8.668866   10.232182   0.354601
 C   8.385128   11.596271   0.321319
 H   9.191905   12.316077   0.241574
 C   7.062378   12.033802   0.404295
 H   6.839554   13.094557   0.387715
 C   6.027635   11.111354   0.515074
 H   4.996867   11.433018   0.600150
 C   6.302800   9.739361   0.524966
 C   5.134916   8.803621   0.660535
 C   7.632417   9.305848   0.453477
 H   7.871758   8.249917   0.516341
 O   4.113062   9.110541   1.237296
 N   5.325827   7.569835   0.051583
 H   6.128387   7.438829  -0.557905
 N   4.383454   6.599609   0.128609
 C   4.577129   5.531534  -0.550534
 H   5.468144   5.407172  -1.181615
 H   3.725772  -13.339687   0.329148
 C   4.536174  -12.620455   0.362010
 C   5.859644  -13.055142   0.319123
 H   6.080351  -14.113569   0.239157
 C   6.899381  -12.126970   0.392807
 H   7.929693  -12.463134   0.368739
 C   6.617052  -10.769830   0.503912
 H   7.410714  -10.036882   0.581852
 C   5.290834  -10.323833   0.523272
 C   5.063413  -8.844632   0.658034
 C   4.251221  -11.259902   0.461070
 H   3.217242  -10.940240   0.531324
 O   5.842358  -8.111372   1.229523
 N   3.895245  -8.395627   0.055274
 H   3.378425  -9.026742  -0.550828
 N   3.525296  -7.094600   0.131661
 C   2.500431  -6.730336  -0.543984
 H   1.945501  -7.441278  -1.171875






