%nproc=15
%mem=70GB
%chk=ExtendedTrisPhenyl_PrimaryAmine_Imine.chk
#P B3LYP/6-311++G(d,p) EmpiricalDispersion=GD3 opt SCF=YQC

Comment

0 1
 C    2.406280000000000    -1.304070000000000    -0.188810000000000
 C    1.203390000000000    -0.548970000000000    -0.106440000000000
 C    -0.027230000000000    -1.203660000000000    -0.047250000000000
 H    -0.068540000000000    -2.290310000000000    -0.082140000000000
 C    -1.205400000000000    -0.462500000000000    0.059980000000000
 C    -2.456090000000000    -1.145820000000000    0.109240000000000
 C    -1.153500000000000    0.928000000000000    0.109830000000000
 H    -2.069380000000000    1.508030000000000    0.195200000000000
 C    0.083700000000000    1.572160000000000    0.044410000000000
 C    0.148000000000000    2.991420000000000    0.079300000000000
 C    1.263040000000000    0.839400000000000    -0.064700000000000
 H    2.222880000000000    1.348280000000000    -0.114060000000000
 C    0.175490000000000    4.190400000000000    0.090480000000000
 C    0.127670000000000    5.611430000000000    0.085080000000000
 C    -3.456150000000000    -1.808590000000000    0.128860000000000
 C    -4.564140000000000    -2.707110000000000    0.127640000000000
 C    3.394430000000000    -1.983070000000000    -0.219750000000000
 C    4.502070000000000    -2.877030000000000    -0.213360000000000
 C    -1.117180000000000    6.242170000000000    0.077500000000000
 C    -1.189510000000000    7.632000000000000    0.064410000000000
 H    -2.030180000000000    5.651340000000000    0.079790000000000
 C    -0.016980000000000    8.387359999999999    0.058750000000000
 H    -2.159150000000000    8.121460000000001    0.057590000000000
 C    1.227970000000000    7.755110000000000    0.065810000000000
 C    1.302670000000000    6.362820000000000    0.078900000000000
 H    2.139400000000000    8.346740000000000    0.060060000000000
 H    2.273040000000000    5.872360000000000    0.082380000000000
 C    4.252440000000000    -4.250540000000001    -0.198640000000000
 C    5.314610000000000    -5.149730000000000    -0.169460000000000
 H    3.229840000000000    -4.620520000000000    -0.204530000000000
 C    6.625220000000000    -4.673790000000000    -0.155500000000000
 H    5.116950000000000    -6.217720000000000    -0.154560000000000
 C    6.874820000000000    -3.299950000000000    -0.171320000000000
 C    5.811540000000000    -2.397060000000000    -0.200240000000000
 H    7.897730000000000    -2.933230000000000    -0.157900000000000
 H    6.009820000000000    -1.328100000000000    -0.207300000000000
 C    -4.315700000000000    -4.082170000000000    0.120760000000000
 C    -5.377930000000000    -4.983700000000000    0.105750000000000
 H    -3.293760000000000    -4.454150000000001    0.124030000000000
 C    -6.689040000000000    -4.509870000000000    0.098020000000000
 H    -5.180530000000000    -6.052100000000000    0.098250000000000
 C    -6.938440000000000    -3.136120000000000    0.105990000000000
 C    -5.875190000000000    -2.231340000000000    0.120820000000000
 H    -7.961900000000000    -2.770510000000000    0.098710000000000
 H    -6.075870000000000    -1.163000000000000    0.123970000000000
 N    -0.062994404000000    9.786385126000001    0.009593066000000
 C    0.668491244000000    10.483036309999999    0.790644150000000
 C    0.717425546000000    11.948396268000000    0.741790251000000
 C    1.527743738000000    12.636825848999999    1.654841291000000
 C    1.597239728000000    14.027691173999999    1.631630309000000
 C    0.855601449000000    14.743600923000001    0.693931106000000
 C    0.043977924000000    14.064756205999998    -0.220388867000000
 C    -0.026187843000000    12.678458319000001    -0.199533192000000
 H    1.295187966000000    10.011047572000001    1.560389070000000
 H    2.104622523000000    12.078240090000000    2.385269159000000
 H    2.227125799000000    14.550623644000000    2.342113001000000
 H    0.907433377000000    15.826393954000000    0.673257850000000
 H    -0.532505743000000    14.623127996999999    -0.949354589000000
 H    -0.650037520000000    12.138785722000000    -0.901442000000000
 N    7.795983978000000    -5.439647576000000    -0.223167659000000
 C    7.956238753000001    -6.441668216000000    0.551885867000000
 C    9.126749982000000    -7.323351402000001    0.484067757000000
 C    9.236734212000000    -8.385694536000001    1.391560787000000
 C    10.334804976999999    -9.241512942000000    1.350448198000000
 C    11.334368619999999    -9.042055153000000    0.400225585000000
 C    11.232961869000000    -7.984144920000000    -0.508667434000000
 C    10.138982775000002    -7.130392918000000    -0.469972646000000
 H    7.220113375000000    -6.686511241000000    1.330474791000000
 H    8.457836108000000    -8.539857704999999    2.131752325000000
 H    10.410319678000000    -10.060296961000001    2.056770183000000
 H    12.190490327999999    -9.706443441999999    0.365606196000000
 H    12.011477208000001    -7.830188003000000    -1.247392439000000
 H    10.046413354000000    -6.306966649000000    -1.167476044000000
 N    -7.825746106000000    -5.326957572000000    0.052499021000000
 C    -8.810372591000000    -5.105384681000000    0.834708111000000
 C    -10.055038505000001    -5.880517698000000    0.789578922000000
 C    -11.076498044999999    -5.588594894000000    1.703698470000000
 C    -12.270680730000000    -6.305124442000000    1.684002913000000
 C    -12.454145504000000    -7.321758026000000    0.748785969000000
 C    -11.439924074000000    -7.620103294000000    -0.166576746000000
 C    -10.249166855000000    -6.906677643000000    -0.149224170000000
 H    -8.765841394000001    -4.320375833000000    1.602697351000000
 H    -10.932360683000001    -4.796853170000000    2.432191103000000
 H    -13.054552573000000    -6.071407780000000    2.395284813000000
 H    -13.382560697000001    -7.881470687000000    0.730851447000000
 H    -11.584101199999999    -8.411394530999999    -0.893608130000000
 H    -9.454734101000000    -7.126042919000000    -0.851980446000000




