%nproc=15
%mem=70GB
%chk=TetraPhenylSilane_Aldehyde_Benzobisoxazole_freq.chk
#P B3LYP/6-311++G(d,p) EmpiricalDispersion=GD3 freq(noraman) SCF=YQC

Restart from TetraPhenylSilane_Aldehyde_Benzobisoxazole-1.log

0 1
Si   0.000136  -0.000000  -0.000001
 C   2.730842   2.610185   2.809690
 C  -2.730740  -2.809881   2.609807
 C   2.730858  -2.610174  -2.809686
 C  -2.730748   2.809869  -2.609812
 C   1.587092   1.985422   3.326351
 C  -1.587165  -3.326579   1.984751
 C   1.587107  -1.985415  -3.326350
 C  -1.587176   3.326573  -1.984753
 C   0.790778   1.200380   2.502216
 C  -0.790780  -2.502371   1.199861
 C   0.790788  -1.200377  -2.502216
 C  -0.790790   2.502368  -1.199862
 C   1.104515   1.013369   1.145808
 C  -1.104269  -1.145839   1.013301
 C   1.104521  -1.013364  -1.145807
 C  -1.104272   1.145834  -1.013304
 C   2.258931   1.639165   0.646837
 C  -2.258553  -0.646849   1.639318
 C   2.258939  -1.639157  -0.646834
 C  -2.258552   0.646839  -1.639324
 C   3.063253   2.429475   1.460129
 C  -3.062952  -1.460220   2.429469
 C   3.063265  -2.429464  -1.460124
 C  -3.062954   1.460206  -2.429475
 H   1.339507   2.122596   4.371721
 H  -1.339757  -4.372033   2.121603
 H   1.339525  -2.122589  -4.371720
 H  -1.339773   4.372028  -2.121603
 H  -0.084943   0.719950   2.925116
 H   0.084781  -2.925304   0.719172
 H  -0.084934  -0.719949  -2.925118
 H   0.084769   2.925305  -0.719171
 H   2.543352   1.500702  -0.391445
 H  -2.542800   0.391527   1.501180
 H   2.543357  -1.500693   0.391449
 H  -2.542795  -0.391538  -1.501187
 H   3.949198   2.904137   1.057461
 H  -3.948805  -1.057533   2.904285
 H   3.949211  -2.904122  -1.057454
 H  -3.948804   1.057516  -2.904294
 H   7.595406   6.709858   5.460345
 C   6.710644   6.087467   5.396373
 C   5.924325   5.891138   6.545335
 H   6.221405   6.367922   7.472135
 C   4.777647   5.101788   6.519977
 H   4.168874   4.947744   7.402074
 C   4.435841   4.508842   5.303445
 N   3.376238   3.681465   4.946787
 C   5.236585   4.720589   4.174068
 O   4.672237   4.028408   3.134298
 C   6.379806   5.500278   4.174116
 H   6.976910   5.643998   3.282942
 C   3.556326   3.431398   3.686981
 H  -7.597793  -5.462026   6.705565
 C  -6.712058  -5.397565   6.084608
 C  -5.923295  -6.545440   5.891752
 H  -6.219514  -7.471915   6.369702
 C  -4.775292  -6.519419   5.104355
 H  -4.164653  -7.400685   4.952960
 C  -4.434694  -5.303352   4.509758
 N  -3.374367  -4.946294   3.683494
 C  -5.237877  -4.175061   4.718039
 O  -4.674247  -3.135535   4.024908
 C  -6.382454  -4.175784   5.495735
 H  -6.981452  -3.285452   5.636768
 C  -3.556168  -3.687208   3.431033
 H   7.595444  -6.709827  -5.460332
 C   6.710679  -6.087440  -5.396362
 C   5.924362  -5.891113  -6.545325
 H   6.221446  -6.367896  -7.472125
 C   4.777681  -5.101768  -6.519970
 H   4.168909  -4.947725  -7.402068
 C   4.435870  -4.508824  -5.303438
 N   3.376263  -3.681450  -4.946783
 C   5.236613  -4.720568  -4.174059
 O   4.672259  -4.028390  -3.134290
 C   6.379836  -5.500253  -4.174105
 H   6.976938  -5.643971  -3.282930
 C   3.556347  -3.431383  -3.686976
 H  -7.597805   5.461996  -6.705576
 C  -6.712071   5.397539  -6.084618
 C  -5.923314   6.545417  -5.891759
 H  -6.219536   7.471891  -6.369709
 C  -4.775313   6.519400  -5.104360
 H  -4.164677   7.400669  -4.952963
 C  -4.434710   5.303335  -4.509764
 N  -3.374383   4.946280  -3.683498
 C  -5.237888   4.175040  -4.718047
 O  -4.674253   3.135515  -4.024916
 C  -6.382463   4.175758  -5.495745
 H  -6.981457   3.285424  -5.636781
 C  -3.556178   3.687193  -3.431039






