%nproc=15
%mem=70GB
%chk=N-TrisPhenyl_Aldehyde_Hydrazone.chk
#P B3LYP/6-311++G(d,p) EmpiricalDispersion=GD3 opt SCF=YQC

Comment

0 1
 N    0.000000000000000    0.000000000000000    0.000000000000000
 C    1.486664194000000    0.115830323000000    -0.171934194000000
 C    -0.789065806000000    1.237760323000000    0.199745806000000
 C    -0.613895806000000    -1.236089677000000    -0.038794194000000
 C    -0.462675806000000    2.500160323000000    -0.322134194000000
 C    2.176224194000000    -0.918259677000000    -0.846584194000000
 C    -1.765025806000000    -1.441179677000000    -0.822204194000000
 C    -2.007925806000000    1.140170323000000    0.910585806000000
 C    -1.297715806000000    3.610210323000000    -0.126194194000000
 H    0.438864194000000    2.642570323000000    -0.911754194000000
 C    2.273194194000000    1.157440323000000    0.348705806000000
 C    3.570374194000000    -0.927389677000000    -0.965384194000000
 H    1.632104194000000    -1.749019677000000    -1.289124194000000
 C    -0.125815806000000    -2.315259677000000    0.720105806000000
 C    -2.414125806000000    -2.677449677000000    -0.833324194000000
 H    -2.163745806000000    -0.629609677000000    -1.426834194000000
 C    -2.865415806000000    2.233870323000000    1.065575806000000
 H    -2.315445806000000    0.194440323000000    1.350765806000000
 C    -2.504725806000000    3.472930323000000    0.555025806000000
 H    -1.010125806000000    4.580640323000000    -0.521804194000000
 C    3.666684194000001    1.177220323000000    0.186235806000000
 H    1.821684194000000    1.969990323000000    0.911145806000000
 C    4.315594194000000    0.127230323000000    -0.457594194000000
 H    4.064904194000000    -1.761929677000000    -1.456734194000000
 C    -0.759375806000000    -3.559559677000000    0.685245806000000
 H    0.753504194000000    -2.187099677000000    1.347095806000000
 C    -1.906875806000000    -3.737209677000000    -0.084874194000000
 H    -3.314085806000000    -2.810259677000000    -1.427784194000000
 H    -3.812175806000000    2.108150323000000    1.585245806000000
 H    4.245704194000000    2.009030323000000    0.578395806000000
 H    -0.358405806000000    -4.386819677000000    1.264815806000000
 H    -7.930482718000000    9.629491205000001    1.491789707000000
 C    -6.967338148000000    9.851574504000000    1.038131480000000
 C    -6.664647314000000    11.159319526999999    0.663946466000000
 H    -7.387777769000000    11.954507290000000    0.827677713000000
 C    -5.438688320000000    11.445585245000000    0.069396208000000
 H    -5.202125289000000    12.462264003000000    -0.234540015000000
 C    -4.511783940000000    10.423034304000000    -0.143501821000000
 H    -3.558918308000000    10.660751938000001    -0.614811958000000
 C    -4.799899460000000    9.101875971000000    0.234735047000000
 C    -3.763420938000000    8.056889932000001    -0.045331968000000
 C    -6.043706115000000    8.823544032999999    0.820229632000000
 H    -6.340099029000000    7.819004370000000    1.098250167000000
 O    -2.803401872000000    8.346747607999999    -0.755836964000000
 N    -3.961973413000000    6.809192265000000    0.531517989000000
 H    -4.722830264000000    6.628403297000000    1.169343110000000
 N    -3.081946642000000    5.802438709000000    0.265723028000000
 C    -3.369150454000000    4.648582434000000    0.775650718000000
 H    -4.276328261000000    4.491363196999999    1.386218111000000
 H    12.446220236000000    1.160352066000000    -1.479937674000000
 C    11.999976363000000    0.218529988000000    -1.790762095000000
 C    12.807382235000000    -0.789463499000000    -2.314095735000000
 H    13.879491353000002    -0.635432661000000    -2.408465712000000
 C    12.238320717000001    -1.991190834000000    -2.726932177000000
 H    12.862340593000001    -2.776530070000000    -3.146236926000000
 C    10.860742881000000    -2.186926084000000    -2.608379479000000
 H    10.428629361000000    -3.130039925000000    -2.940659513000000
 C    10.035538943000001    -1.183135834000000    -2.076424015000000
 C    8.565027298000000    -1.459849050000000    -2.000619126000000
 C    10.618582883000000    0.028328443000000    -1.676747091000000
 H    10.030769670000000    0.854712945000000    -1.294898437000000
 O    8.115996573000000    -2.450691330999999    -2.572523325000000
 N    7.796614631000000    -0.561062983000000    -1.272159104000000
 H    8.209311431000000    0.200409912000000    -0.754231440000000
 N    6.444965952000000    -0.729876956000000    -1.215639273000000
 C    5.784960311000000    0.185359009000000    -0.582684089000000
 H    6.289595122000000    1.052538348000000    -0.120271175000000
 H    -4.921849879000000    -11.424764746999999    -0.261041583000000
 C    -5.472676733000000    -10.639782809000000    -0.774040000000000
 C    -6.675562198000000    -10.941535600000000    -1.409528019000000
 H    -7.062754082000000    -11.957283932999999    -1.389857648000000
 C    -7.376571855000000    -9.942787189000001    -2.079976077000000
 H    -8.309841872000000    -10.175360514999999    -2.586820941000000
 C    -6.876852221000000    -8.639096090000001    -2.107499365000000
 H    -7.433167004000000    -7.869124429000000    -2.640653503000000
 C    -5.669817527000000    -8.318579235000000    -1.465728990000000
 C    -5.188462796000000    -6.902729769000000    -1.557320445000000
 C    -4.965752758000000    -9.336143402999999    -0.805287063000000
 H    -4.010543176000000    -9.160362380000000    -0.324745911000000
 O    -5.748133979000000    -6.133390290000000    -2.335366950000000
 N    -4.123900261000000    -6.550227424000000    -0.737944383000000
 H    -3.736876694000000    -7.187536041000000    -0.057900877000000
 N    -3.606289311000000    -5.291611525000000    -0.819256891000000
 C    -2.569611992000000    -5.055858768000000    -0.081952778000000
 H    -2.130446485000000    -5.831806888000000    0.570366296000000




