%nproc=15
%mem=70GB
%chk=N-TrisPhenyl_Aldehyde_Hydrazone_freq.chk
#P B3LYP/6-311++G(d,p) EmpiricalDispersion=GD3 freq(noraman) SCF=YQC

Restart from N-TrisPhenyl_Aldehyde_Hydrazone.log

0 1
 N   0.000960  -0.001483   0.511161
 C   1.374423  -0.349402   0.526900
 C  -0.384952   1.361806   0.525754
 C  -0.986995  -1.017308   0.525061
 C   0.310998   2.306595  -0.248908
 C   1.844621  -1.424412  -0.247831
 C  -2.150241  -0.888522  -0.254093
 C  -1.465922   1.790172   1.305764
 C  -0.058502   3.639410  -0.236124
 H   1.143065   1.980604  -0.860838
 C   2.285574   0.371665   1.308085
 C   3.183511  -1.771275  -0.234475
 H   1.146392  -1.981095  -0.860726
 C  -0.820577  -2.165399   1.308924
 C  -3.120407  -1.874319  -0.241699
 H  -2.281087  -0.006554  -0.868995
 C  -1.842375   3.127042   1.303331
 H  -2.009642   1.072342   1.907061
 C  -1.146611   4.075731   0.541281
 H   0.478160   4.361439  -0.839343
 C   3.631491   0.028976   1.306071
 H   1.935537   1.200948   1.909924
 C   4.105260  -1.047605   0.543580
 H   3.540542  -2.596746  -0.838070
 C  -1.790785  -3.159235   1.306280
 H   0.070842  -2.275967   1.913594
 C  -2.957619  -3.032411   0.539944
 H  -4.011925  -1.771864  -0.848238
 H  -2.682328   3.440453   1.915335
 H   4.322736   0.599114   1.918785
 H  -1.645060  -4.041547   1.921563
 H  -4.487708   11.527089  -0.303423
 C  -3.408054   11.430310  -0.315084
 C  -2.602998   12.565786  -0.244537
 H  -3.055949   13.547513  -0.164301
 C  -1.214009   12.437419  -0.291078
 H  -0.585648   13.319606  -0.245575
 C  -0.632529   11.179058  -0.402702
 H   0.442716   11.061796  -0.459962
 C  -1.433421   10.032599  -0.449763
 C  -0.734863   8.708672  -0.583638
 C  -2.826857   10.167629  -0.414860
 H  -3.466953   9.296995  -0.506936
 O   0.339804   8.588171  -1.133885
 N  -1.419776   7.647980  -0.007209
 H  -2.223131   7.842107   0.584022
 N  -0.942870   6.381282  -0.087179
 C  -1.563847   5.474016   0.570545
 H  -2.442004   5.712852   1.186654
 H   12.227900  -1.873721  -0.308925
 C   11.605195  -2.761012  -0.319299
 C   12.187438  -4.025301  -0.248834
 H   13.264320  -4.122708  -0.169911
 C   11.382945  -5.164916  -0.293767
 H   11.833890  -6.149674  -0.248349
 C   10.002158  -5.040869  -0.403690
 H   9.363828  -5.914124  -0.459674
 C   9.408361  -3.774685  -0.450650
 C   7.912312  -3.719194  -0.582739
 C   10.220831  -2.634567  -0.417389
 H   9.785670  -1.645448  -0.509529
 O   7.270750  -4.590540  -1.131693
 N   7.335898  -2.595944  -0.006094
 H   7.905875  -1.996708   0.584385
 N   6.000310  -2.376303  -0.085330
 C   5.524843  -1.385379   0.572945
 H   6.170537  -0.744694   1.189703
 H  -7.750778  -9.647215  -0.292652
 C  -8.204573  -8.662848  -0.308339
 C  -9.590230  -8.530017  -0.239748
 H  -10.216041  -9.411440  -0.157025
 C  -10.170613  -7.261795  -0.291455
 H  -11.248600  -7.156114  -0.247467
 C  -9.368923  -6.131239  -0.406262
 H  -9.802717  -5.140656  -0.467440
 C  -7.975831  -6.254887  -0.451353
 C  -7.175643  -4.990177  -0.588607
 C  -7.399007  -7.530338  -0.411283
 H  -6.325152  -7.652180  -0.501795
 O  -7.605500  -4.000467  -1.143465
 N  -5.915757  -5.053303  -0.009591
 H  -5.684901  -5.844251   0.585154
 N  -5.055343  -4.008681  -0.091423
 C  -3.961042  -4.091898   0.569568
 H  -3.731957  -4.969563   1.190051






