%nproc=15
%mem=70GB
%chk=BiPhenyl_PrimaryAmine_Imine.chk
#P B3LYP/6-311++G(d,p) EmpiricalDispersion=GD3 opt SCF=YQC NoSymm

Comment

0 1
 C    -0.000000000000000    3.577958000000000    -0.000000182000000
 C    1.133739000000000    2.852350000000000    -0.402520182000000
 C    1.135339000000000    1.463226000000000    -0.401762182000000
 C    -0.000000000000000    0.741600000000000    -0.000000182000000
 C    -1.135339000000000    1.463225000000000    0.401761818000000
 C    -1.133738000000000    2.852349000000000    0.402519818000000
 C    -0.000000000000000    -0.741600000000000    -0.000000182000000
 C    -1.135339000000000    -1.463226000000000    -0.401762182000000
 C    -1.133739000000000    -2.852350000000000    -0.402520182000000
 C    -0.000000000000000    -3.577958000000000    -0.000000182000000
 C    1.133738000000000    -2.852349000000000    0.402519818000000
 C    1.135339000000000    -1.463225000000000    0.401761818000000
 H    -2.020512000000000    -3.385811000000000    -0.727052182000000
 H    -2.020512000000000    3.385812000000000    0.727052818000000
 H    2.020512000000000    -3.385812000000000    0.727052818000000
 H    2.020512000000000    3.385811000000000    -0.727052182000000
 H    -2.015826000000000    -0.929067000000000    -0.740072182000000
 H    -2.015827000000000    0.929068000000000    0.740072818000000
 H    2.015826000000000    0.929067000000000    -0.740072182000000
 H    2.015827000000000    -0.929068000000000    0.740072818000000
 N    -0.060234348000000    4.976841497000000    -0.036080862000000
 C    0.889083183000000    5.675593652000000    0.454812787000000
 C    0.918472789000000    7.140730911000000    0.387209984000000
 C    1.986029901000000    7.831655892000000    0.976410755000000
 C    2.043363755000000    9.222371100000000    0.926422435000000
 C    1.031888245000000    9.935630915000001    0.286100930000000
 C    -0.037325227000000    9.254287416000000    -0.303896949000000
 C    -0.096075490000000    7.868131945000000    -0.255923608000000
 H    1.736226750000000    5.205764059000000    0.974078925000000
 H    2.773147750000001    7.275135036000001    1.475471953000000
 H    2.873459867000000    9.747245992000000    1.385167767000000
 H    1.073515488000000    11.018299918000000    0.245484637000000
 H    -0.823584207000000    9.810599085000000    -0.801709807000000
 H    -0.917621971000000    7.326541863000000    -0.708529917000000
 N    0.060234338000000    -4.976843499000000    -0.036080625000000
 C    -0.889083059000000    -5.675595629000000    0.454813316000000
 C    -0.918472684000000    -7.140732891000000    0.387210597000000
 C    -1.986029636000000    -7.831657842000000    0.976411692000000
 C    -2.043363504000000    -9.222373053000000    0.926423458000000
 C    -1.031888168000000    -9.935632901000002    0.286101715000000
 C    0.037325144000000    -9.254289432000000    -0.303896489000000
 C    0.096075421000000    -7.868133958000000    -0.255923235000000
 H    -1.736226486000000    -5.205766010000000    0.974079660000000
 H    -2.773147350000000    -7.275136961000000    1.475473075000000
 H    -2.873459491000000    -9.747247921000000    1.385169042000000
 H    -1.073515422000000    -11.018301905000000    0.245485489000000
 H    0.823583990000000    -9.810601126000000    -0.801709532000000
 H    0.917621778000000    -7.326543899000000    -0.708529794000000




