%nproc=15
%mem=70GB
%chk=Triazine-TrisPhenyl_BoronicAcid_Borosilicate.chk
#P B3LYP/6-311++G(d,p) EmpiricalDispersion=GD3 opt SCF=YQC

Comment

0 1
 C    4.027462051000000    -3.893913718000000    0.310066179000000
 C    2.672148051000000    -4.262318718000000    0.319743179000000
 C    1.678672051000000    -3.300991718000001    0.229140179000000
 C    2.003629051000000    -1.937063718000000    0.160580179000000
 C    3.355470051000000    -1.566913718000000    0.187692179000000
 C    4.354395051000000    -2.527048718000000    0.261396179000000
 C    0.941359051000000    -0.909939718000000    0.077892179000000
 N    1.312939051000000    0.376982282000000    0.037767179000000
 C    0.318010051000000    1.271410282000000    -0.038992821000000
 N    -0.981642949000000    0.947974282000000    -0.075637821000000
 C    -1.260558949000000    -0.362144718000000    -0.031325821000000
 N    -0.332144949000000    -1.325265718000000    0.045418179000000
 C    0.676958051000000    2.706621282000000    -0.083768821000000
 C    -0.317350949000000    3.691753282000000    -0.190296821000000
 C    0.018704051000000    5.034651282000000    -0.245812821000000
 C    1.360665051000000    5.440586282000000    -0.161808821000000
 C    2.359252051000000    4.454275282000000    -0.075031821000000
 C    2.018771051000000    3.109724282000000    -0.036659821000000
 C    -2.682392949000000    -0.770638718000000    -0.066681821000000
 C    -3.700649949000000    0.190456282000000    -0.135975821000000
 C    -5.035099948999999    -0.188277718000000    -0.165449821000000
 C    -5.391426949000000    -1.548090718000000    -0.125807821000000
 C    -4.369830949000000    -2.511469718000000    -0.093439821000000
 C    -3.039347949000000    -2.128166718000000    -0.047251821000000
 H    0.636350051000000    -3.590416718000000    0.220005179000000
 H    2.423007051000000    -5.314639718000000    0.386235179000000
 H    5.392662051000000    -2.220384718000000    0.316972179000000
 H    3.609547051000000    -0.515584718000000    0.158735179000000
 H    -1.353435949000000    3.384405282000000    -0.238761821000000
 H    -0.746394949000000    5.795773282000000    -0.341783821000000
 H    3.403496051000000    4.745260282000000    -0.073396821000000
 H    2.789534051000000    2.352613282000000    0.021499179000000
 H    -3.429036949000000    1.237058282000000    -0.175087821000000
 H    -5.807122949000000    0.567416282000000    -0.254919821000000
 H    -4.647001949000000    -3.558870718000000    -0.092107821000000
 H    -2.256291949000000    -2.873402718000000    -0.005591821000000
 B    5.165576186000000    -4.977725456000000    0.431983914000000
 O    6.456503479000000    -4.615861882000000    0.440302975000000
 O    4.862505160000000    -6.282700094000000    0.496379330000000
Si    7.935130855000000    -5.215983698000000    0.346935753000000
Si    5.527412320000000    -7.735551481000000    0.457136588000000
 O    8.140308611000000    -6.169988128000000    1.612770715000000
 O    7.993678494000000    -6.145143014000000    -0.953031725000000
 H    8.946956471000000    -4.151298183000000    0.294813413000000
 O    6.407585958000000    -7.820962574000000    -0.874505736000000
 O    6.537829130000000    -7.831235161000000    1.692375483000000
 H    4.509819513000000    -8.795124149999999    0.502050535000000
 B    7.613165811000000    -7.237260364000000    2.228460133000000
 H    7.913755698000000    -7.473307709000000    3.345282941000000
 B    7.405384146000000    -7.205600161000000    -1.524009772000000
 H    7.545684524000000    -7.393096369000000    -2.680927160000000
 B    1.728895377000000    6.973259316000000    -0.173444881000000
 O    0.774878751000000    7.904777121000000    -0.313568347000000
 O    3.006462808999999    7.369925485000000    -0.076310806000000
Si    0.567253124000000    9.467578612000001    -0.577662358000000
Si    3.938183341000000    8.663167059999999    -0.193961812000000
 O    1.220987125000000    10.247536523999999    0.654757225000000
 O    1.416756298000000    9.850730680000000    -1.876977237000000
 H    -0.854102620000000    9.802120070000001    -0.744674106000000
 O    3.650939699000000    9.329424239000002    -1.618343934000000
 O    3.450603748000000    9.704962501000001    0.916371932000000
 H    5.358373217000000    8.320385029000001    -0.033438233000000
 B    2.372554080000000    10.388207040999999    1.325673292000000
 H    2.365170236000000    10.877102896000000    2.400053176000000
 B    2.659613942000000    9.815949989000000    -2.377747354000000
 H    2.817764415000000    9.913844648000000    -3.543381058000000
 B    -6.903412578000000    -1.993865335000000    -0.126029990000000
 O    -7.233330388000000    -3.293197813000000    -0.145956804000000
 O    -7.885263674000000    -1.080221172000000    -0.139460933000000
Si    -8.479454362000000    -4.275123849000000    -0.341402067000000
Si    -9.467820143000001    -0.931566528000000    -0.306300673000000
 O    -9.507411832000001    -3.978587266000000    0.846002671000000
 O    -9.206738173000000    -3.860639145000000    -1.703731320000000
 H    -8.058574757000001    -5.683142965000000    -0.361541246000000
 O    -9.872166318000000    -1.650061723000000    -1.675804522000000
 O    -10.152189809999999    -1.761079886000000    0.876686381000000
 H    -9.880835681000001    0.478909039000000    -0.292755804000000
 B    -10.216828904999998    -2.990045880000000    1.407728905000000
 H    -10.660004120000000    -3.134207027000000    2.492246819000000
 B    -9.784448210000001    -2.820990092000000    -2.321838503000000
 H    -9.923161982000000    -2.847564276000000    -3.493738315000000




