%nproc=18
%mem=70GB
%chk=PDBA_boroxine_freq.chk
#P B3LYP/6-311++G(d,p) EmpiricalDispersion=GD3 freq(noraman) SCF=YQC

Restart from PDBA_boroxine.log

0 1
 C   1.235051  -1.426202   0.000000
 C  -0.000035  -0.711760   0.000000
 C  -1.235123  -1.426202   0.000000
 C   1.235051   1.426210   0.000000
 C  -0.000035   0.711768   0.000000
 C  -1.235123   1.426210   0.000000
 C  -2.463626   0.679273   0.000000
 C  -2.463626  -0.679264   0.000000
 C   2.463555   0.679272   0.000000
 C   2.463555  -0.679265   0.000000
 C  -1.207828  -2.825347   0.000000
 C  -0.000036  -3.537001   0.000000
 C   1.207755  -2.825348   0.000000
 C  -1.207824   2.825355   0.000000
 C  -0.000030   3.537009   0.000000
 C   1.207760   2.825356   0.000000
 B  -0.000046  -5.086550   0.000000
 B  -0.000053   5.086557   0.000000
 O  -1.189698   5.790352   0.000000
 O   1.189741   5.790266   0.000000
 O  -1.189759  -5.790299   0.000000
 O   1.189679  -5.790302   0.000000
 H  -2.144284  -3.373204   0.000000
 H  -3.399114  -1.228798   0.000000
 H  -3.399114   1.228807   0.000000
 H  -2.144280   3.373213   0.000000
 H   2.144216   3.373211   0.000000
 H   3.399042   1.228806   0.000000
 H   3.399043  -1.228799   0.000000
 H   2.144212  -3.373205   0.000000
 B  -1.205392   7.173546   0.000000
 O   0.000094   7.851088   0.000000
 B   1.205576   7.173377   0.000000
 C  -2.546524   7.947214   0.000000
 C  -2.566786   9.351807   0.000000
 C  -3.771332   10.049805   0.000000
 C  -4.979185   9.350599   0.000000
 C  -4.979891   7.954960   0.000000
 C  -3.772636   7.261691   0.000000
 H  -1.626757   9.892456   0.000000
 H  -3.772672   11.134215   0.000000
 H  -5.918703   9.892618   0.000000
 H  -5.919349   7.413317   0.000000
 H  -3.770139   6.177257   0.000000
 C   2.546692   7.947079   0.000000
 C   2.566965   9.351667   0.000000
 C   3.771520   10.049652   0.000000
 C   4.979367   9.350439   0.000000
 C   4.980064   7.954799   0.000000
 C   3.772801   7.261544   0.000000
 H   1.626942   9.892325   0.000000
 H   3.772868   11.134062   0.000000
 H   5.918889   9.892452   0.000000
 H   5.919518   7.413148   0.000000
 H   3.770295   6.177109   0.000000
 B  -1.205496  -7.173472   0.000000
 O  -0.000027  -7.851079   0.000000
 B   1.205475  -7.173432   0.000000
 C   2.546572  -7.947154   0.000000
 C   3.772703  -7.261665   0.000000
 C   4.979941  -7.954963   0.000000
 C   4.979194  -9.350603   0.000000
 C   3.771321  -10.049774   0.000000
 C   2.566792  -9.351747   0.000000
 H   3.770236  -6.177229   0.000000
 H   5.919414  -7.413347   0.000000
 H   5.918696  -9.892649   0.000000
 H   3.772633  -11.134184   0.000000
 H   1.626748  -9.892367   0.000000
 C  -2.546638  -7.947133   0.000000
 C  -2.566927  -9.351724   0.000000
 C  -3.771486  -10.049700   0.000000
 C  -4.979327  -9.350473   0.000000
 C  -4.980007  -7.954834   0.000000
 C  -3.772739  -7.261589   0.000000
 H  -1.626908  -9.892391   0.000000
 H  -3.772845  -11.134110   0.000000
 H  -5.918855  -9.892475   0.000000
 H  -5.919455  -7.413173   0.000000
 H  -3.770222  -6.177154   0.000000






