%nproc=18
%mem=70GB
%chk=PDBA_boroxine.chk
#P B3LYP/6-311++G(d,p) EmpiricalDispersion=GD3 opt SCF=YQC

Restart from /data/gent/vo/000/gvo00003/vsc42354/PhD/Data/SBUs/PDBA/_boroxine_large/PDBA_boroxine.log

0 1
 C   1.234454  -1.426760   0.000000
 C  -0.000092  -0.711955   0.000000
 C  -1.234640  -1.426758   0.000000
 C   1.234454   1.426823   0.000000
 C  -0.000092   0.712018   0.000000
 C  -1.234639   1.426822   0.000000
 C  -2.463094   0.679316   0.000000
 C  -2.463094  -0.679250   0.000000
 C   2.462908   0.679313   0.000000
 C   2.462908  -0.679253   0.000000
 C  -1.207110  -2.826271   0.000000
 C  -0.000095  -3.540778   0.000000
 C   1.206920  -2.826274   0.000000
 C  -1.207094   2.826334   0.000000
 C  -0.000075   3.540845   0.000000
 C   1.206934   2.826337   0.000000
 B  -0.000123  -5.093063   0.000000
 B  -0.000131   5.093128   0.000000
 O  -1.188436   5.800243   0.000000
 O   1.188581   5.799972   0.000000
 O  -1.188660  -5.800006   0.000000
 O   1.188370  -5.800055   0.000000
 H  -2.145132  -3.371101   0.000000
 H  -3.398898  -1.228257   0.000000
 H  -3.398898   1.228322   0.000000
 H  -2.145118   3.371166   0.000000
 H   2.144956   3.371164   0.000000
 H   3.398712   1.228319   0.000000
 H   3.398713  -1.228258   0.000000
 H   2.144944  -3.371101   0.000000
 B  -1.206560   7.183323   0.000000
 O   0.000307   7.859381   0.000000
 B   1.207111   7.182831   0.000000
 C  -2.550122   7.959321   0.000000
 C  -2.571905   9.364429   0.000000
 C  -3.775779   10.063492   0.000000
 C  -4.984130   9.366177   0.000000
 C  -4.985252   7.971045   0.000000
 C  -3.778554   7.276897   0.000000
 H  -1.633506   9.907539   0.000000
 H  -3.775644   11.147912   0.000000
 H  -5.923244   9.908989   0.000000
 H  -5.924883   7.429686   0.000000
 H  -3.780831   6.192641   0.000000
 C   2.550679   7.958826   0.000000
 C   2.572581   9.363913   0.000000
 C   3.776531   10.062851   0.000000
 C   4.984817   9.365423   0.000000
 C   4.985808   7.970291   0.000000
 C   3.779039   7.276267   0.000000
 H   1.634236   9.907115   0.000000
 H   3.776496   11.147270   0.000000
 H   5.923983   9.908147   0.000000
 H   5.925388   7.428842   0.000000
 H   3.781206   6.192009   0.000000
 B  -1.206910  -7.183040   0.000000
 O  -0.000114  -7.859296   0.000000
 B   1.206809  -7.182966   0.000000
 C   2.550256  -7.959121   0.000000
 C   3.778770  -7.276843   0.000000
 C   4.985389  -7.971128   0.000000
 C   4.984089  -9.366260   0.000000
 C   3.775656  -10.063428   0.000000
 C   2.571858  -9.364233   0.000000
 H   3.781175  -6.192584   0.000000
 H   5.925087  -7.429887   0.000000
 H   5.923136  -9.909191   0.000000
 H   3.775402  -11.147849   0.000000
 H   1.633391  -9.907213   0.000000
 C  -2.550524  -7.958988   0.000000
 C  -2.572424  -9.364090   0.000000
 C  -3.776353  -10.063060   0.000000
 C  -4.984652  -9.365656   0.000000
 C  -4.985665  -7.970525   0.000000
 C  -3.778910  -7.276474   0.000000
 H  -1.634070  -9.907277   0.000000
 H  -3.776299  -11.147481   0.000000
 H  -5.923808  -9.908397   0.000000
 H  -5.925254  -7.429091   0.000000
 H  -3.781105  -6.192218   0.000000








