%nproc=15
%mem=70GB
%chk=2_Phenyl_BoronicAcid_Boroxine_freq.chk
#P B3LYP/6-311++G(d,p) EmpiricalDispersion=GD3 freq(noraman) SCF=YQC

Restart from 2_Phenyl_BoronicAcid_Boroxine.log

0 1
 C  -0.000001   1.412394   0.000065
 C   0.000001  -1.412394   0.000065
 C   1.208457   0.694952   0.000066
 C  -1.208457  -0.694952   0.000066
 C   1.208458  -0.694951   0.000065
 C  -1.208458   0.694951   0.000065
 H  -2.146282   1.239329   0.000068
 H   2.146282  -1.239329   0.000068
 H  -2.146281  -1.239331   0.000068
 H   2.146281   1.239331   0.000068
 B  -0.000001   2.960940   0.000067
 O   1.190787   3.670499   0.000031
 B   1.196961   5.044546  -0.000051
 O  -1.190788   3.670500   0.000031
 B  -1.196962   5.044547  -0.000054
 O  -0.000000   5.728252  -0.000177
 H   2.222962   5.638172  -0.000096
 H  -2.222963   5.638172  -0.000103
 B   0.000001  -2.960940   0.000067
 O  -1.190787  -3.670499   0.000031
 B  -1.196961  -5.044546  -0.000051
 O   1.190788  -3.670500   0.000031
 B   1.196962  -5.044547  -0.000054
 O   0.000000  -5.728252  -0.000177
 H  -2.222962  -5.638172  -0.000096
 H   2.222963  -5.638172  -0.000103






