%nproc=15
%mem=70GB
%chk=Pyrene_Aldehyde_Azine.chk
#P B3LYP/6-311++G(d,p) EmpiricalDispersion=GD3 opt SCF=YQC

Comment

0 1
 C    0.000149000000000    3.538221000000000    0.000000000000000
 C    -1.208314000000000    2.825814000000000    0.000000000000000
 C    -1.234523000000000    1.426499000000000    0.000000000000000
 C    0.000173000000000    0.711855000000000    0.000000000000000
 C    1.234878000000000    1.426489000000000    0.000000000000000
 C    1.208633000000000    2.825798000000000    0.000000000000000
 H    -2.147734000000000    3.368891000000000    0.000000000000000
 H    2.148055000000000    3.368886000000000    0.000000000000000
 C    0.000167000000000    -0.711882000000000    0.000000000000000
 C    -1.234536000000000    -1.426518000000000    0.000000000000000
 C    -1.208310000000000    -2.825825000000000    0.000000000000000
 C    0.000175000000000    -3.538236000000000    0.000000000000000
 C    1.208656000000000    -2.825835000000000    0.000000000000000
 C    1.234871000000000    -1.426526000000000    0.000000000000000
 H    -2.147732000000000    -3.368910000000000    0.000000000000000
 H    2.148078000000000    -3.368915000000000    0.000000000000000
 C    2.463326000000000    0.679235000000000    0.000000000000000
 C    2.463326000000000    -0.679271000000000    0.000000000000000
 H    3.399127000000000    1.228117000000000    0.000000000000000
 H    3.399123000000000    -1.228155000000000    0.000000000000000
 C    -2.462978000000000    0.679245000000000    0.000000000000000
 C    -2.462987000000000    -0.679261000000000    0.000000000000000
 H    -3.398774000000000    1.228133000000000    0.000000000000000
 H    -3.398787000000000    -1.228142000000000    0.000000000000000
 C    -0.040360887000000    5.012499770000000    0.005131725000000
 N    1.030861123000000    5.740784020000000    -0.028710850000000
 H    -1.040977135000000    5.481874761000000    0.035735979000000
 N    0.698476996000000    7.093706149000000    -0.034808301000000
 C    1.762304162000000    7.831536137000000    -0.076447726000000
 C    1.695735815000000    9.305013856000000    -0.116634944000000
 H    2.769124489000000    7.375221723000000    -0.089667564000000
 C    2.888980822000000    10.031229973000000    -0.174963818000000
 C    2.849438196000000    11.425895178999999    -0.230220569000000
 H    3.849940519000000    9.523893310000000    -0.181427272000000
 C    1.622677371000000    12.091227628000000    -0.226378696000000
 H    3.774599685000000    11.994926978000001    -0.278613304000000
 C    0.432439032000000    11.365568498000000    -0.165245342000000
 H    1.593673843000000    13.177293950999999    -0.272140168000000
 C    0.466451419000000    9.971138643000000    -0.110058774000000
 H    -0.522502756000000    11.885112876000001    -0.162920933000000
 H    -0.464449228000000    9.411082074999999    -0.065631802000000
 C    0.040819888000000    -5.012511055000000    0.005131725000000
 N    -1.030335427000000    -5.740893394000000    -0.028710850000000
 H    1.041479113000000    -5.481794416000000    0.035735979000000
 N    -0.697827412000000    -7.093785081000000    -0.034808301000000
 C    -1.761587010000000    -7.831712481000000    -0.076447726000000
 C    -1.694883735000000    -9.305184099000000    -0.116634944000000
 H    -2.768449119000000    -7.375490265000000    -0.089667564000000
 C    -2.888062237000000    -10.031509480000000    -0.174963818000000
 C    -2.848391900000000    -11.426171059000000    -0.230220569000000
 H    -3.849068387000000    -9.524260815000000    -0.181427272000000
 C    -1.621570155000000    -12.091391169000000    -0.226378696000000
 H    -3.773501278000000    -11.995287574000001    -0.278613304000000
 C    -0.431398271000000    -11.365623051000000    -0.165245342000000
 H    -1.592467174000000    -13.177454832000000    -0.272140168000000
 C    -0.465538347000000    -9.971196316000000    -0.110058774000000
 H    0.523591089000000    -11.885079981000001    -0.162920933000000
 H    0.465311011000000    -9.411054505999999    -0.065631802000000




