%nproc=15
%mem=70GB
%chk=P_BoronicAcid_Boroxine_freq.chk
#P B3LYP/6-311++G(d,p) EmpiricalDispersion=GD3 freq(noraman) SCF=YQC

Restart from P_BoronicAcid_Boroxine.log

0 1
 C  -4.264247   0.669548   0.001939
 C  -4.262017  -0.683288  -0.002027
 C  -2.860616  -1.092331  -0.009896
 C  -2.864198   1.083207   0.010068
 N  -2.038235  -0.003201   0.000148
 C  -2.460241   2.431073   0.009051
 C  -1.134788   2.882878   0.000221
 N  -0.003471   2.102308   0.000185
 C   1.125389   2.886417   0.000257
 C  -0.690923   4.245756   0.005002
 C   0.677247   4.247899  -0.004245
 C   2.452272   2.438864  -0.008754
 C   2.860645   1.092341  -0.009932
 N   2.038271   0.003212   0.000166
 C   4.264282  -0.669538   0.001759
 C   4.262051   0.683298  -0.002183
 C   1.134813  -2.882870   0.000134
 N   0.003495  -2.102304   0.000108
 C  -1.125359  -2.886418   0.000139
 C  -0.677218  -4.247894  -0.004440
 C   0.690955  -4.245746   0.004841
 C  -2.452245  -2.438855  -0.008797
 C   2.460263  -2.431066   0.008982
 C   2.864239  -1.083199   0.010000
 H  -5.117343   1.329092  -0.001506
 H  -5.112932  -1.345648   0.001210
 C  -3.522542   3.484794   0.019897
 H  -0.001965   1.089195   0.000092
 H  -1.345995   5.101136   0.013687
 H   1.329650   5.105318  -0.012722
 C   3.511157   3.496046  -0.019685
 H   5.117370  -1.329092  -0.001779
 H   5.112969   1.345652   0.001005
 H   0.001976  -1.089190   0.000132
 H  -1.329605  -5.105323  -0.012979
 H   1.346019  -5.101132   0.013451
 C  -3.511125  -3.496043  -0.019718
 C   3.522562  -3.484795   0.019847
 C   3.762107   4.265133   1.123722
 C   4.746677   5.246952   1.111217
 H   3.183521   4.081117   2.021917
 C   5.508055   5.492610  -0.043318
 H   4.935839   5.831543   2.004747
 C   5.248413   4.717576  -1.185789
 C   4.266018   3.733789  -1.175412
 H   5.823619   4.894744  -2.087815
 H   4.073404   3.142014  -2.063034
 C  -4.278942   3.719452   1.175256
 C  -5.264583   4.699987   1.185507
 H  -4.084963   3.127846   2.062693
 C  -5.526046   5.474746   0.043263
 H  -5.840941   4.874789   2.087257
 C  -4.763102   5.232224  -1.110890
 C  -3.775277   4.253679  -1.123262
 H  -4.953616   5.816644  -2.004245
 H  -3.195514   4.072040  -2.021182
 C  -3.761940  -4.265241   1.123644
 C  -4.746531  -5.247041   1.111168
 H  -3.183241  -4.081313   2.021784
 C  -5.508054  -5.492576  -0.043294
 H  -4.935589  -5.831717   2.004664
 C  -5.248528  -4.717448  -1.185732
 C  -4.266119  -3.733678  -1.175381
 H  -5.823832  -4.894538  -2.087710
 H  -4.073601  -3.141827  -2.062974
 C   4.278906  -3.719475   1.175238
 C   5.264550  -4.700003   1.185515
 H   4.084879  -3.127883   2.062675
 C   5.526066  -5.474751   0.043276
 H   5.840881  -4.874813   2.087282
 C   4.763165  -5.232211  -1.110912
 C   3.775344  -4.253663  -1.123312
 H   4.953715  -5.816623  -2.004263
 H   3.195620  -4.072009  -2.021254
 B   6.600993   6.583764  -0.055935
 O   6.856161   7.348154   1.073562
 B   7.827598   8.318967   1.068101
 O   7.352595   6.824761  -1.197002
 B   8.326059   7.793402  -1.213437
 O   8.561458   8.539312  -0.078058
 H   8.034604   8.963848   2.041171
 H   8.960119   7.988006  -2.196113
 B  -6.622708   6.562186   0.055733
 O  -7.375708   6.800155   1.196499
 B  -8.352412   7.765531   1.212852
 O  -6.879883   7.326135  -1.073599
 B  -7.854564   8.293697  -1.068225
 O  -8.589699   8.511152   0.077673
 H  -8.987640   7.957597   2.195272
 H  -8.063263   8.938260  -2.041142
 B  -6.601079  -6.583643  -0.055875
 O  -6.856187  -7.348106   1.073591
 B  -7.827506  -8.319040   1.068057
 O  -7.352809  -6.824501  -1.196884
 B  -8.326150  -7.793262  -1.213392
 O  -8.561329  -8.539407  -0.078121
 H  -8.034427  -8.964009   2.041086
 H  -8.960292  -7.987782  -2.196032
 B   6.622688  -6.562212   0.055756
 O   7.375789  -6.800118   1.196479
 B   8.352431  -7.765553   1.212842
 O   6.879748  -7.326287  -1.073527
 B   7.854369  -8.293907  -1.068138
 O   8.589576  -8.511306   0.077722
 H   8.987731  -7.957550   2.195230
 H   8.062950  -8.938566  -2.041018






