%nproc=15
%mem=70GB
%chk=T-brick_Aldehyde_Imine.chk
#P B3LYP/6-311++G(d,p) EmpiricalDispersion=GD3 opt SCF=YQC NoSymm

Comment

0 1
 N    1.048041667000000    -2.362353333000000    -0.827760000000000
 C    0.687191667000000    -1.111843333000000    -0.380820000000000
 C    -0.707988333000000    -1.156633333000000    -0.350020000000000
 N    -1.140578333000000    -2.423203333000000    -0.704650000000000
 C    -1.452748333000000    -0.004173333000000    0.016440000000000
 C    -2.937038333000000    0.018916667000000    0.013290000000000
 C    -0.690808333000000    1.125556667000000    0.389200000000000
 H    -1.190148333000000    2.031256667000000    0.727650000000000
 C    0.707131667000000    1.132496667000000    0.363290000000000
 H    1.218751667000000    2.041706667000000    0.676780000000000
 C    1.457221667000000    0.014596667000000    -0.038090000000000
 C    2.930271667000000    0.035566667000000    -0.088570000000000
 C    -3.644438333000000    1.216186667000000    -0.227900000000000
 C    3.614231667000000    1.150886667000000    -0.607650000000000
 C    3.709801667000000    -1.028743333000000    0.397570000000000
 C    -3.714278333000000    -1.126953333000000    0.257540000000000
 C    -5.114658333000000    -1.083173333000000    0.260860000000000
 H    -3.237768333000000    -2.085023333000000    0.454110000000000
 C    5.107441667000000    -0.993503333000000    0.339110000000000
 H    3.237601667000000    -1.893393333000000    0.858000000000000
 C    -5.778958333000000    0.116916667000000    0.034260000000000
 H    -5.680408333000000    -1.992973333000000    0.442850000000000
 C    -5.043148333000000    1.269606667000000    -0.208850000000000
 H    -3.111798333000000    2.138136667000000    -0.449260000000000
 C    5.011001667000000    1.198966667000000    -0.646670000000000
 H    3.058831667000001    2.004406667000000    -0.992550000000000
 C    5.757241667000000    0.121996667000000    -0.180560000000000
 H    5.688571667000000    -1.831683333000000    0.715280000000000
 H    5.511931667000000    2.079726667000000    -1.040580000000000
 H    -5.551588333000000    2.212836667000000    -0.390060000000000
 C    -0.066158333000000    -3.157953333000000    -0.916690000000000
 H    1.993111667000000    -2.657013333000000    -1.011250000000000
 C    -0.040848333000000    -4.599613333000000    -1.196060000000000
 C    -1.251718333000000    -5.281883333000000    -1.390290000000000
 C    -1.273518333000000    -6.658563333000001    -1.631550000000000
 H    -2.193238333000000    -4.735723333000000    -1.348080000000000
 C    1.151281667000000    -5.339883333000000    -1.242140000000000
 C    -0.081488333000000    -7.375973333000000    -1.679350000000000
 H    -2.223038333000000    -7.167013333000000    -1.777580000000000
 C    1.130121667000000    -6.718103333000000    -1.483600000000000
 H    2.116521667000000    -4.871123333000000    -1.078620000000000
 H    2.060961667000000    -7.279213333000000    -1.512890000000000
 C    -12.152042922000000    1.025863180000000    -0.295507460000000
 C    -11.482125534000000    2.061743547000000    0.358269417000000
 C    -11.417944922000000    0.020398075000000    -0.923445301000000
 C    -10.026079939000001    0.034761477000000    -0.884446576000000
 C    -9.348302083999998    1.065442993000000    -0.212998528000000
 C    -10.092350367000000    2.093217403000000    0.385002355000000
 C    -7.245468316000000    0.099088944000000    0.026108875000000
 N    -7.947369458000000    1.150081525000000    -0.155583041000000
 H    -12.045708029000000    2.853708620000000    0.838759958000000
 H    -11.930141457000000    -0.774008366000000    -1.455072238000000
 H    -9.459980657999999    -0.730867646000000    -1.402656890000000
 H    -9.560151032000000    2.899538465000000    0.875697843000000
 H    -7.710387830000000    -0.880851302000000    0.202907962000000
 H    -13.235289273999999    1.011769315000000    -0.328827802000000
 C    12.152042922000000    -1.025863180000000    0.295507460000000
 C    11.482125534000000    -2.061743547000000    -0.358269417000000
 C    11.417944922000000    -0.020398075000000    0.923445301000000
 C    10.026079939000001    -0.034761477000000    0.884446576000000
 C    9.348302083999998    -1.065442993000000    0.212998528000000
 C    10.092350367000000    -2.093217403000000    -0.385002355000000
 C    7.245468316000000    -0.099088944000000    -0.026108875000000
 N    7.947369458000000    -1.150081525000000    0.155583041000000
 H    12.045708029000000    -2.853708620000000    -0.838759958000000
 H    11.930141457000000    0.774008366000000    1.455072238000000
 H    9.459980657999999    0.730867646000000    1.402656890000000
 H    9.560151032000000    -2.899538465000000    -0.875697843000000
 H    7.710387830000000    0.880851302000000    -0.202907962000000
 H    13.235289273999999    -1.011769315000000    0.328827802000000
 C    -0.977466034000000    -13.541683412999999    -3.332341437000000
 C    -1.905718914000000    -13.083211070999999    -2.395639056000000
 C    -0.086936134000000    -12.641257004000000    -3.915740667000000
 C    -0.106670356000000    -11.296465133000000    -3.554962724000000
 C    -1.027128122000000    -10.834124993000000    -2.600222559000000
 C    -1.944231801000000    -11.738416580999999    -2.044605147000000
 C    -0.052956834000000    -8.800236860000000    -2.028198330000000
 N    -1.113531696000000    -9.487746549000001    -2.209234129000000
 H    -2.609450683000000    -13.774999813000001    -1.946311783000000
 H    0.620255915000000    -12.984481271000000    -4.662822049000000
 H    0.565206123000000    -10.594822041000000    -4.036083549000000
 H    -2.669670865000000    -11.366968161000001    -1.330507055000000
 H    0.946349201000000    -9.250007646000000    -2.110567293000000
 H    -0.959684777000000    -14.587494096000002    -3.616410766000000




