%nproc=15
%mem=70GB
%chk=Adamantane_BoronicAcid_Boroxine.chk
#P B3LYP/6-311++G(d,p) EmpiricalDispersion=GD3 opt SCF=YQC

Comment

0 1
 C    -0.000001000000000    -0.000001000000000    1.760854000000000
 C    -0.000001000000000    -0.000001000000000    -1.760853000000000
 H    0.583501000000000    -0.548807000000000    -2.343561000000000
 H    -0.583501000000000    0.548807000000000    -2.343561000000000
 C    0.925717000000000    -0.871783000000000    0.897399000000000
 C    -0.925717000000000    0.871783000000000    0.897399000000000
 C    -0.871783000000000    -0.925717000000000    -0.897399000000000
 C    0.871783000000000    0.925717000000000    -0.897399000000000
 C    1.773370000000000    0.051568000000000    -0.002829000000000
 C    -1.773370000000000    -0.051569000000000    -0.002829000000000
 C    0.051568000000000    -1.773370000000000    0.002829000000000
 C    -0.051569000000000    1.773370000000000    0.002829000000000
 H    2.340312000000000    0.633966000000000    0.562907000000000
 H    -2.340313000000000    -0.633966000000000    0.562907000000000
 H    0.633966000000000    -2.340313000000000    -0.562907000000000
 H    -0.633966000000000    2.340312000000000    -0.562907000000000
 H    2.368699000000000    -0.498341000000000    -0.571393000000000
 H    -2.368700000000000    0.498341000000000    -0.571393000000000
 H    -0.498341000000000    -2.368700000000000    0.571393000000000
 H    0.498341000000000    2.368699000000000    0.571393000000000
 H    -0.548807000000000    -0.583501000000000    2.343561000000000
 H    0.548807000000000    0.583501000000000    2.343561000000000
 B    1.846797158000000    -1.739165105000000    1.790295208000000
 O    3.226104228000000    -1.638223119000000    1.696078926000000
 B    4.048350097000000    -2.405369015000000    2.485691919000000
 O    1.311578661000000    -2.635289435000000    2.702464606000000
 B    2.123928205000000    -3.407584699000000    3.497284085000000
 O    3.492823659000000    -3.289454947000000    3.385723368000000
 H    5.226217417000000    -2.308692988000000    2.394093389000000
 H    1.652253081000000    -4.169966945000000    4.272786438000000
 B    -1.846797021000000    1.739165550000000    1.790294917000000
 O    -3.226104113000000    1.638224712000000    1.696077728000000
 B    -4.048349860000000    2.405371008000000    2.485690460000000
 O    -1.311578376000000    2.635289140000000    2.702464955000000
 B    -2.123927797000000    3.407584794000000    3.497284181000000
 O    -3.492823276000000    3.289456187000000    3.385722558000000
 H    -5.226217201000000    2.308695964000000    2.394091153000000
 H    -1.652252548000000    4.169966398000000    4.272787088000000
 B    -1.739181925000000    -1.846767363000000    -1.790309603000000
 O    -2.718597052000000    -1.316977699000000    -2.615914174000000
 B    -3.491338759000000    -2.129335158000000    -3.410291532000000
 O    -1.554947390000000    -3.220648628999999    -1.782656726000000
 B    -2.321669890000000    -4.042845727000000    -2.572731596000000
 O    -3.289490437000000    -3.492760741000000    -3.385753794000001
 H    -4.325476099000000    -1.662364175000000    -4.111191645000000
 H    -2.153208100000000    -5.216063045000000    -2.555709253000000
 B    1.739181925000000    1.846767363000000    -1.790309603000000
 O    2.718597052000000    1.316977699000000    -2.615914174000000
 B    3.491338759000000    2.129335158000000    -3.410291532000000
 O    1.554947390000000    3.220648628999999    -1.782656726000000
 B    2.321669890000000    4.042845727000000    -2.572731596000000
 O    3.289490437000000    3.492760741000000    -3.385753794000001
 H    4.325476099000000    1.662364175000000    -4.111191645000000
 H    2.153208100000000    5.216063045000000    -2.555709253000000




