%nproc=15
%mem=70GB
%chk=P_PrimaryAmine_Imine_freq.chk
#P B3LYP/6-311++G(d,p) EmpiricalDispersion=GD3 freq(noraman) SCF=YQC

Restart from P_PrimaryAmine_Imine.log

0 1
 C   4.185615   1.053653   0.214892
 C   4.306218  -0.294105   0.213260
 C   2.947881  -0.828786   0.220514
 C   2.754098   1.339198   0.206999
 N   2.030301   0.181875   0.213720
 C   2.231246   2.646012   0.206102
 C   0.869330   2.973754   0.211438
 N  -0.186906   2.093714   0.213979
 C  -1.382805   2.771834   0.213668
 C   0.303203   4.290478   0.204243
 C  -1.059754   4.168148   0.215778
 C  -2.664872   2.207595   0.219968
 C  -2.947845   0.828862   0.220513
 N  -2.030270  -0.181791   0.213675
 C  -4.185582  -1.053575   0.214918
 C  -4.306190   0.294183   0.213306
 C  -0.869299  -2.973673   0.211490
 N   0.186931  -2.093628   0.213934
 C   1.382824  -2.771757   0.213758
 C   1.059780  -4.168064   0.215958
 C  -0.303182  -4.290396   0.204456
 C   2.664893  -2.207513   0.220018
 C  -2.231212  -2.645926   0.206141
 C  -2.754073  -1.339121   0.207030
 H   4.974482   1.788749   0.221901
 H   5.213095  -0.877529   0.207799
 C   3.193750   3.791184   0.196381
 H  -0.096346   1.084686   0.215550
 H   0.878881   5.201183   0.193168
 H  -1.788443   4.961703   0.224172
 C  -3.814124   3.165403   0.227678
 H  -4.974443  -1.788678   0.221946
 H  -5.213070   0.877604   0.207865
 H   0.096380  -1.084599   0.215473
 H   1.788476  -4.961613   0.224413
 H  -0.878868  -5.201098   0.193511
 C   3.814123  -3.165357   0.227712
 C  -3.193707  -3.791111   0.196425
 C  -4.142022   3.900749  -0.916160
 C  -5.209895   4.792802  -0.914008
 H  -3.561588   3.758370  -1.820903
 C  -5.982674   4.972353   0.244047
 H  -5.471303   5.323869  -1.822238
 C  -5.676544   4.212095   1.381689
 C  -4.598455   3.336193   1.375879
 H  -6.288250   4.333679   2.267847
 H  -4.361202   2.766395   2.267072
 C   3.924944   4.101048  -0.955269
 C   4.820964   5.165187  -0.971192
 H   3.779374   3.506048  -1.849864
 C   5.008103   5.953536   0.175225
 H   5.350888   5.410788  -1.884487
 C   4.251274   5.666496   1.319932
 C   3.371159   4.591664   1.332291
 H   4.379947   6.288922   2.197596
 H   2.807045   4.367012   2.230454
 C   4.141970  -3.900703  -0.916135
 C   5.209816  -4.792798  -0.914009
 H   3.561527  -3.758294  -1.820867
 C   5.982591  -4.972390   0.244034
 H   5.471180  -5.323851  -1.822259
 C   5.676505  -4.212138   1.381694
 C   4.598449  -3.336196   1.375910
 H   6.288227  -4.333761   2.267833
 H   4.361216  -2.766404   2.267112
 C  -3.924690  -4.101153  -0.955304
 C  -4.820691  -5.165315  -0.971230
 H  -3.779000  -3.506268  -1.849956
 C  -5.007998  -5.953521   0.175255
 H  -5.350467  -5.411048  -1.884577
 C  -4.251366  -5.666296   1.320059
 C  -3.371285  -4.591442   1.332416
 H  -4.380166  -6.288617   2.197779
 H  -2.807332  -4.366643   2.230644
 N  -7.086729   5.838067   0.303421
 C  -7.033208   6.986831  -0.250403
 C  -8.171906   7.912326  -0.279415
 C  -8.020067   9.165826  -0.887442
 C  -9.082650   10.065316  -0.932231
 C  -10.308862   9.719055  -0.368140
 C  -10.469187   8.470440   0.240754
 C  -9.411617   7.572124   0.285586
 H  -6.112724   7.351967  -0.727833
 H  -7.064396   9.435176  -1.326269
 H  -8.954261   11.032304  -1.405030
 H  -11.138019   10.416892  -0.401241
 H  -11.423774   8.202000   0.679281
 H  -9.520948   6.601305   0.753205
 N   5.879155   7.054310   0.215622
 C   7.026671   6.985774  -0.339234
 C   7.958127   8.118926  -0.388165
 C   9.209748   7.950465  -0.995682
 C   10.114880   9.007296  -1.059081
 C   9.776263   10.244290  -0.514230
 C   8.529584   10.421208   0.094042
 C   7.625638   9.369396   0.157364
 H   7.386003   6.055752  -0.802228
 H   9.473191   6.986361  -1.419362
 H   11.080373   8.866005  -1.531250
 H   10.478543   11.068982  -0.561790
 H   8.267131   11.384163   0.517654
 H   6.656295   9.491485   0.624891
 N   7.086614  -5.838158   0.303416
 C   7.033067  -6.986901  -0.250448
 C   8.171726  -7.912444  -0.279439
 C   8.019855  -9.165924  -0.887499
 C   9.082399  -10.065462  -0.932271
 C   10.308607  -9.719269  -0.368127
 C   10.468964  -8.470675   0.240800
 C   9.411433  -7.572313   0.285614
 H   6.112587  -7.351992  -0.727921
 H   7.064188  -9.435223  -1.326366
 H   8.953981  -11.032433  -1.405097
 H   11.137735  -10.417141  -0.401214
 H   11.423547  -8.202286   0.679368
 H   9.520791  -6.601509   0.753260
 N  -5.879025  -7.054306   0.215610
 C  -7.026526  -6.985789  -0.339271
 C  -7.957993  -8.118935  -0.388193
 C  -9.209599  -7.950481  -0.995742
 C  -10.114732  -9.007309  -1.059143
 C  -9.776131  -10.244296  -0.514261
 C  -8.529470  -10.421206   0.094046
 C  -7.625523  -9.369396   0.157371
 H  -7.385859  -6.055763  -0.802264
 H  -9.473027  -6.986383  -1.419445
 H  -11.080213  -8.866024  -1.531339
 H  -10.478414  -11.068985  -0.561822
 H  -8.267030  -11.384154   0.517683
 H  -6.656190  -9.491477   0.624923






