%nproc=15
%mem=70GB
%chk=TrisPhenyl_Hydrazide_Hydrazone_freq.chk
#P B3LYP/6-311++G(d,p) EmpiricalDispersion=GD3 freq(noraman) SCF=YQC

Restart from TrisPhenyl_Hydrazide_Hydrazone.log

0 1
 C  -4.541572  -3.465722  -0.208838
 C  -4.532078  -2.305580  -0.990298
 C  -3.424543  -1.469229  -0.998510
 C  -2.297719  -1.754402  -0.211636
 C  -2.321591  -2.906728   0.585843
 C  -3.426131  -3.752195   0.586795
 C  -1.117956  -0.854675  -0.213307
 C   0.178972  -1.379669  -0.213066
 C   1.300532  -0.542891  -0.211740
 C   1.106740   0.842807  -0.210998
 C  -0.178739   1.395695  -0.211305
 C  -1.281862   0.535000  -0.212758
 C  -0.368261   2.867256  -0.207714
 C  -1.356116   3.462649   0.588568
 C  -1.536812   4.841832   0.590755
 C  -0.729710   5.665958  -0.202160
 C   0.272241   5.079135  -0.982176
 C   0.443352   3.701885  -0.991865
 C   2.669618  -1.114736  -0.208962
 C   3.679046  -0.558998   0.588917
 C   4.963609  -1.092579   0.590507
 C   5.273714  -2.201948  -0.204741
 C   4.264624  -2.774267  -0.986327
 C   2.986503  -2.233416  -0.995303
 H   0.317455  -2.454268  -0.213282
 H  -2.281740   0.952356  -0.212477
 H   1.968105   1.500072  -0.209470
 H  -1.965168   2.844284   1.237767
 H   1.202027   3.263292  -1.629787
 H  -2.279733   5.270608   1.254364
 H   0.906200   5.722057  -1.580460
 H  -3.427973  -4.609022   1.251611
 H  -1.483094  -3.124652   1.237172
 H  -5.404476  -2.078288  -1.590684
 H  -3.422394  -0.593532  -1.637312
 H   2.227346  -2.669672  -1.634262
 H   4.504349  -3.643608  -1.586306
 H   5.706255  -0.665443   1.255467
 H   3.448081   0.276216   1.239949
 C  -5.783048  -4.310163  -0.238823
 O  -6.880584  -3.848176  -0.471199
 N  -5.558159  -5.657732   0.006257
 H  -4.603306  -6.005158   0.022860
 N  -6.587219  -6.538721   0.060531
 C  -6.296917  -7.779276   0.182046
 C  -7.329897  -8.812972   0.263049
 H  -5.253715  -8.121256   0.232356
 C  -6.946027  -10.154100   0.401300
 C  -7.904564  -11.161744   0.480801
 H  -5.891670  -10.408683   0.446575
 C  -9.258604  -10.839609   0.422666
 H  -7.594284  -12.194949   0.587506
 C  -9.649738  -9.504249   0.284662
 H  -10.006931  -11.621607   0.484025
 C  -8.697987  -8.496869   0.205332
 H  -10.703138  -9.251745   0.238707
 H  -8.992799  -7.460250   0.097522
 C  -0.841114   7.163278  -0.230822
 O   0.108015   7.883625  -0.459478
 N  -2.121793   7.641170   0.010107
 H  -2.899657   6.987359   0.023244
 N  -2.371500   8.972611   0.064079
 C  -3.591837   9.340327   0.180519
 C  -3.972239   10.751383   0.260425
 H  -4.409140   8.607103   0.226836
 C  -5.326569   11.088120   0.392650
 C  -5.721655   12.421632   0.470711
 H  -6.073636   10.301554   0.434274
 C  -4.766432   13.434180   0.417167
 H  -6.772303   12.668427   0.572702
 C  -3.413463   13.106627   0.285207
 H  -5.070828   14.472927   0.477389
 C  -3.015217   11.779119   0.207337
 H  -2.668689   13.893415   0.242807
 H  -1.969332   11.517228   0.104138
 C   6.626033  -2.854312  -0.234443
 O   6.775213  -4.036093  -0.465002
 N   7.680211  -1.984656   0.008359
 H   7.502908  -0.984117   0.023122
 N   8.958160  -2.434142   0.062140
 C   9.886624  -1.561203   0.180312
 C   11.298855  -1.937040   0.260530
 H   9.660089  -0.486872   0.227862
 C   12.267197  -0.932400   0.395043
 C   13.619637  -1.256680   0.473733
 H   11.959156   0.107692   0.438006
 C   14.019386  -2.589997   0.418535
 H   14.358355  -0.470112   0.577539
 C   13.059680  -3.598036   0.284218
 H   15.071194  -2.845518   0.479266
 C   11.710861  -3.279489   0.205661
 H   13.369047  -4.636256   0.240492
 H   10.961432  -4.054374   0.100644






