%nproc=15
%mem=70GB
%chk=N-TrisPhenyl_BoronicAcid_Boroxine.chk
#P B3LYP/6-311++G(d,p) EmpiricalDispersion=GD3 opt SCF=YQC

Comment

0 1
 N    0.000000000000000    0.000000000000000    0.000000000000000
 C    1.486664194000000    0.115830323000000    -0.171934194000000
 C    -0.789065806000000    1.237760323000000    0.199745806000000
 C    -0.613895806000000    -1.236089677000000    -0.038794194000000
 C    -0.462675806000000    2.500160323000000    -0.322134194000000
 C    2.176224194000000    -0.918259677000000    -0.846584194000000
 C    -1.765025806000000    -1.441179677000000    -0.822204194000000
 C    -2.007925806000000    1.140170323000000    0.910585806000000
 C    -1.297715806000000    3.610210323000000    -0.126194194000000
 H    0.438864194000000    2.642570323000000    -0.911754194000000
 C    2.273194194000000    1.157440323000000    0.348705806000000
 C    3.570374194000000    -0.927389677000000    -0.965384194000000
 H    1.632104194000000    -1.749019677000000    -1.289124194000000
 C    -0.125815806000000    -2.315259677000000    0.720105806000000
 C    -2.414125806000000    -2.677449677000000    -0.833324194000000
 H    -2.163745806000000    -0.629609677000000    -1.426834194000000
 C    -2.865415806000000    2.233870323000000    1.065575806000000
 H    -2.315445806000000    0.194440323000000    1.350765806000000
 C    -2.504725806000000    3.472930323000000    0.555025806000000
 H    -1.010125806000000    4.580640323000000    -0.521804194000000
 C    3.666684194000001    1.177220323000000    0.186235806000000
 H    1.821684194000000    1.969990323000000    0.911145806000000
 C    4.315594194000000    0.127230323000000    -0.457594194000000
 H    4.064904194000000    -1.761929677000000    -1.456734194000000
 C    -0.759375806000000    -3.559559677000000    0.685245806000000
 H    0.753504194000000    -2.187099677000000    1.347095806000000
 C    -1.906875806000000    -3.737209677000000    -0.084874194000000
 H    -3.314085806000000    -2.810259677000000    -1.427784194000000
 H    -3.812175806000000    2.108150323000000    1.585245806000000
 H    4.245704194000000    2.009030323000000    0.578395806000000
 H    -0.358405806000000    -4.386819677000000    1.264815806000000
 B    -3.403036675000000    4.718493382000000    0.754059123000000
 O    -3.031576044000000    5.950800155000000    0.239286356000000
 B    -3.824569984000000    7.059459965000000    0.412848479000000
 O    -4.597506082000000    4.627721792000000    1.451593364000000
 B    -5.398597443000000    5.729541197000001    1.631416588000000
 O    -5.008210816000000    6.944454666000000    1.110015842000000
 H    -3.494103665000000    8.107023843000000    -0.032696021000000
 H    -6.417329495000000    5.637147328000000    2.230379350000000
 B    5.854846987000000    0.172603361000000    -0.620830641000000
 O    6.531587419999999    -0.856600519000000    -1.256688915000000
 B    7.897266121000000    -0.821817442000000    -1.404342560000000
 O    6.588734440000000    1.243181495000000    -0.134186697000000
 B    7.954707857000000    1.288821446000000    -0.276043601000000
 O    8.605612518999999    0.253532046000000    -0.912262255000000
 H    8.462768078000000    -1.709232233000000    -1.950062721000000
 H    8.569445440999999    2.210568552000000    0.145368292000000
 B    -2.610542678000000    -5.116294296000000    -0.116219953000000
 O    -3.753165803000000    -5.312748976000000    -0.876069899000000
 B    -4.381845139000000    -6.534163853000000    -0.907657311000000
 O    -2.113010672000000    -6.183524384000000    0.615239209000000
 B    -2.733208375000000    -7.409442057000000    0.591355529000000
 O    -3.868220003000000    -7.580707130000000    -0.171987170000000
 H    -5.358442567000000    -6.687573616000000    -1.561745132000000
 H    -2.296653937000000    -8.313107587999999    1.222162029000000




