%nproc=15
%mem=70GB
%chk=N-TrisPhenyl_BoronicAcid_Boroxine_freq.chk
#P B3LYP/6-311++G(d,p) EmpiricalDispersion=GD3 freq(noraman) SCF=YQC

Restart from N-TrisPhenyl_BoronicAcid_Boroxine.log

0 1
 N  -0.000316   0.000869  -0.000543
 C  -1.313656   0.533460  -0.000576
 C   1.118017   0.871596  -0.000556
 C   0.194933  -1.403051  -0.000186
 C   1.108947   2.038243   0.778878
 C  -2.318949  -0.058141   0.779304
 C   1.206922  -1.978267   0.783103
 C   2.246925   0.576077  -0.779666
 C   2.204969   2.888410   0.770510
 H   0.241138   2.266510   1.385351
 C  -1.623369   1.658068  -0.780399
 C  -3.603605   0.464955   0.770914
 H  -2.082009  -0.923449   1.386020
 C  -0.621781  -2.232809  -0.783123
 C   1.395728  -3.352471   0.775007
 H   1.835913  -1.340744   1.392160
 C   3.340273   1.429620  -0.771020
 H   2.255110  -0.321232  -1.386122
 C   3.346281   2.605426  -0.000191
 H   2.188572   3.784111   1.381477
 C  -2.909623   2.177261  -0.771645
 H  -0.850927   2.114026  -1.387384
 C  -3.930262   1.594264  -0.000229
 H  -4.370628   0.002618   1.382280
 C  -0.428643  -3.606395  -0.774433
 H  -1.400855  -1.791291  -1.392331
 C   0.583643  -4.199352   0.000393
 H   2.177118  -3.786107   1.389197
 H   4.204637   1.193718  -1.381806
 H  -3.138274   3.043221  -1.382930
 H  -1.062172  -4.236985  -1.388304
 B   4.561835   3.551238  -0.000024
 O   4.562537   4.711403   0.763548
 B   5.643698   5.557142   0.767309
 O   5.686730   3.266951  -0.763467
 B   6.772108   4.107273  -0.767088
 O   6.748402   5.252844   0.000148
 H   5.629804   6.543541   1.425267
 H   7.724973   3.851535  -1.424913
 B  -5.357490   2.173139   0.000257
 O  -6.362023   1.593237   0.764263
 B  -7.635314   2.105967   0.768324
 O  -5.674741   3.288863  -0.763667
 B  -6.945427   3.808027  -0.766885
 O  -7.925048   3.214399   0.000874
 H  -8.482152   1.600331   1.426569
 H  -7.201241   4.760532  -1.425204
 B   0.795876  -5.724875   0.000314
 O   1.796319  -6.305778   0.768866
 B   1.988872  -7.664867   0.772323
 O  -0.008124  -6.556581  -0.768342
 B   0.177598  -7.916608  -0.772271
 O   1.177640  -8.469092  -0.000121
 H   2.846640  -8.146265   1.434568
 H  -0.516230  -8.613636  -1.434717






