%nproc=15
%mem=70GB
%chk=F_BoronicAcid_Boroxine_freq_opt_freq.chk
#P B3LYP/6-311++G(d,p) EmpiricalDispersion=GD3 freq(noraman) SCF=YQC

Restart from F_BoronicAcid_Boroxine_freq_opt.log

0 1
 F  -1.323845  -2.340304  -0.381913
 C  -0.694485  -1.172785  -0.172845
 C   0.694485  -1.172786  -0.172845
 F   1.323842  -2.340306  -0.381914
 C   1.432154  -0.000029  -0.000036
 C   0.694485   1.172727   0.172774
 F   1.323845   2.340247   0.381839
 C  -0.694485   1.172727   0.172774
 F  -1.323847   2.340246   0.381839
 C  -1.432154  -0.000029  -0.000035
 B   3.000341  -0.000024  -0.000044
 O   3.692019   1.066414  -0.523139
 B   5.070783   1.075221  -0.527388
 O   3.692036  -1.066402   0.523149
 B   5.070800  -1.075145   0.527482
 O   5.750710   0.000065   0.000090
 H   5.659167   1.996316  -0.981959
 H   5.659199  -1.996152   0.982211
 B  -3.000341  -0.000023  -0.000044
 O  -3.692034  -1.066384   0.523186
 B  -5.070799  -1.075127   0.527519
 O  -3.692017   1.066397  -0.523175
 B  -5.070782   1.075204  -0.527425
 O  -5.750708   0.000065   0.000090
 H  -5.659198  -1.996120   0.982277
 H  -5.659166   1.996283  -0.982026






