%nproc=15
%mem=70GB
%chk=2_Phenyl_Aldehyde_Imine.chk
#P B3LYP/6-311++G(d,p) EmpiricalDispersion=GD3 opt SCF=YQC NoSymm

Comment

0 1
 C    -0.000013000000000    -1.415145000000000    0.000000000000000
 C    0.000013000000000    1.415145000000000    0.000000000000000
 C    -1.206999000000000    -0.694755000000000    0.000000000000000
 C    1.206999000000000    0.694755000000000    0.000000000000000
 C    -1.206984000000000    0.694770000000000    0.000000000000000
 C    1.206984000000000    -0.694770000000000    0.000000000000000
 H    2.148535000000000    -1.233078000000000    0.000000000000000
 H    -2.148535000000000    1.233078000000000    0.000000000000000
 H    2.148565000000000    1.233036000000000    0.000000000000000
 H    -2.148565000000000    -1.233036000000000    0.000000000000000
 C    -0.835752978000000    -7.803236756000000    -0.212037559000000
 C    -1.740168168000000    -7.158287576000000    0.633737451000000
 C    0.017466425000000    -7.045250343000000    -1.013061361000000
 C    -0.015236435000000    -5.654215946000000    -0.958571304000000
 C    -0.911323741000000    -5.001407704000000    -0.096365628000000
 C    -1.791965785000000    -5.769615747000000    0.679430179000000
 C    0.043374309000000    -2.880920677000000    -0.025593073000000
 N    -1.009652178000000    -3.602837684000000    -0.010308323000000
 H    -2.415182475000000    -7.740605614000000    1.250962251000000
 H    0.705250656000000    -7.538119993000000    -1.691358083000000
 H    0.626684607000000    -5.069690504000000    -1.607775174000000
 H    -2.499629837000000    -5.256745951000000    1.320014296000000
 H    1.047570770000000    -3.326972834000000    -0.043422715000000
 H    -0.808006791000000    -8.885760146000001    -0.257915655000000
 C    0.835752978000000    7.803236756000000    0.212037559000000
 C    1.740168168000000    7.158287576000000    -0.633737451000000
 C    -0.017466425000000    7.045250343000000    1.013061361000000
 C    0.015236435000000    5.654215946000000    0.958571304000000
 C    0.911323741000000    5.001407704000000    0.096365628000000
 C    1.791965785000000    5.769615747000000    -0.679430179000000
 C    -0.043374309000000    2.880920677000000    0.025593073000000
 N    1.009652178000000    3.602837684000000    0.010308323000000
 H    2.415182475000000    7.740605614000000    -1.250962251000000
 H    -0.705250656000000    7.538119993000000    1.691358083000000
 H    -0.626684607000000    5.069690504000000    1.607775174000000
 H    2.499629837000000    5.256745951000000    -1.320014296000000
 H    -1.047570770000000    3.326972834000000    0.043422715000000
 H    0.808006791000000    8.885760146000001    0.257915655000000




