%nproc=15
%mem=70GB
%chk=2_Phenyl_Aldehyde_Imine_freq.chk
#P B3LYP/6-311++G(d,p) EmpiricalDispersion=GD3 freq(noraman) SCF=YQC NoSymm

Restart from 2_Phenyl_Aldehyde_Imine.log

0 1
 C   0.005587  -1.405798  -0.017957
 C  -0.005587   1.405798   0.017957
 C  -1.209006  -0.703382  -0.008655
 C   1.209006   0.703382   0.008655
 C  -1.210246   0.682553   0.009885
 C   1.210246  -0.682553  -0.009885
 H   2.153687  -1.219378  -0.016837
 H  -2.153687   1.219378   0.016837
 H   2.135702   1.263564   0.016036
 H  -2.135702  -1.263564  -0.016036
 C  -0.837176  -7.793603  -0.206684
 C  -1.741224  -7.144550   0.636304
 C   0.017306  -7.039522  -1.010025
 C  -0.013912  -5.648265  -0.960616
 C  -0.909836  -4.991312  -0.101428
 C  -1.791595  -5.755683   0.676816
 C   0.047147  -2.871706  -0.037416
 N  -1.006803  -3.592210  -0.020831
 H  -2.417135  -7.723832   1.255413
 H   0.704928  -7.535618  -1.686136
 H   0.629173  -5.066822  -1.611449
 H  -2.499057  -5.239774   1.315191
 H   1.050795  -3.319046  -0.051576
 H  -0.810619  -8.876321  -0.248549
 C   0.837176   7.793603   0.206684
 C   1.741224   7.144550  -0.636304
 C  -0.017306   7.039522   1.010025
 C   0.013912   5.648265   0.960616
 C   0.909836   4.991312   0.101428
 C   1.791595   5.755683  -0.676816
 C  -0.047147   2.871706   0.037416
 N   1.006803   3.592210   0.020831
 H   2.417135   7.723832  -1.255413
 H  -0.704928   7.535618   1.686136
 H  -0.629173   5.066822   1.611449
 H   2.499057   5.239774  -1.315191
 H  -1.050795   3.319046   0.051576
 H   0.810619   8.876321   0.248549






