%nproc=15
%mem=70GB
%chk=3_Phenyl_Aldehyde_Hydrazone.chk
#P B3LYP/6-311++G(d,p) EmpiricalDispersion=GD3 opt SCF=YQC

Comment

0 1
 C    1.212954000000000    0.700272000000000    0.000000000000000
 C    1.208877000000000    -0.698223000000000    0.000000000000000
 C    -0.000137000000000    -1.400767000000000    0.000000000000000
 C    -1.209188000000000    -0.698053000000000    0.000000000000000
 C    -1.213163000000000    0.700261000000000    0.000000000000000
 C    0.000000000000000    1.395989000000000    0.000000000000000
 H    -2.145136000000000    -1.238581000000000    0.000000000000000
 H    -0.000098000000000    2.476797000000000    0.000000000000000
 H    2.144938000000000    -1.238545000000000    0.000000000000000
 H    8.019630557999999    5.350495229000000    -0.513989024000000
 C    8.133717357000000    4.276046423000000    -0.390222287000000
 C    9.408922846999999    3.723645571000000    -0.287570116000000
 H    10.285840124000000    4.365053901000000    -0.328320532000000
 C    9.560079296000000    2.347090249000000    -0.143831814000000
 H    10.553111065000000    1.909987034000000    -0.074523240000000
 C    8.433285705999999    1.523666637000000    -0.094867670000000
 H    8.566917680000001    0.447902300000000    0.012227702000000
 C    7.141900012000000    2.066646157000000    -0.189890051000000
 C    5.983835721000000    1.116894579000000    -0.150139333000000
 C    7.002869363000000    3.453340685000000    -0.348245143000000
 H    6.035764459000000    3.927817744000000    -0.465819532000000
 O    6.201270831000000    -0.089943945000000    -0.232201377000000
 N    4.720041006000000    1.677410096000000    -0.017573501000000
 H    4.584698093000000    2.667756019000000    0.121372286000000
 N    3.624352231000000    0.866312192000000    -0.032841129000000
 C    2.476965938000000    1.461810126000000    0.019917649000000
 H    2.393898107000000    2.562285241000000    0.070278930000000
 H    -8.644123848000000    4.269048291000000    -0.513989024000000
 C    -7.770740552000000    4.905175365000000    -0.390222287000000
 C    -7.930109145000000    6.285717793000000    -0.287570116000000
 H    -8.924094220000001    6.724331778000000    -0.328320532000000
 C    -6.813649855000000    7.105029383000000    -0.143831814000000
 H    -6.931747482000000    8.183558133000000    -0.074523240000000
 C    -5.537082325000001    6.541056352000000    -0.094867670000000
 H    -4.672334359000000    7.194766815000000    0.012227702000000
 C    -5.361463446000000    5.151213995000000    -0.189890051000000
 C    -3.959861494000000    4.623338128000000    -0.150139333000000
 C    -6.492767071000000    4.337332342000000    -0.348245143000000
 H    -6.420000008000000    3.262564772000000    -0.465819532000000
 O    -3.023517430000000    5.415169576000000    -0.232201377000000
 N    -3.813226466000000    3.248618922000000    -0.017573501000000
 H    -4.603149195000000    2.636144569000000    0.121372286000000
 N    -2.562888112000000    2.705417576000000    -0.032841129000000
 C    -2.504762554000000    1.414009618000000    0.019917649000000
 H    -3.416196373000000    0.791728222000000    0.070278930000000
 H    0.623071085000000    -9.620683881000001    -0.513989024000000
 C    -0.364436799000000    -9.182181641000000    -0.390222287000000
 C    -1.480499719000000    -10.010251265000001    -0.287570116000000
 H    -1.363569846000000    -11.090397533999999    -0.328320532000000
 C    -2.748164720000000    -9.452776357999999    -0.143831814000000
 H    -3.623274990000000    -10.094144684000000    -0.074523240000000
 C    -2.897761422000000    -8.065220569999999    -0.094867670000000
 H    -3.896182493000000    -7.642986300000000    0.012227702000000
 C    -1.781765998000000    -7.218427807000000    -0.189890051000000
 C    -2.025123275000000    -5.740619227000000    -0.150139333000000
 C    -0.511384346000000    -7.791473788000000    -0.348245143000000
 H    0.383125861000000    -7.191247276000000    -0.465819532000000
 O    -3.178960058000000    -5.325410934000000    -0.232201377000000
 N    -0.907739364000000    -4.926489064000000    -0.017573501000000
 H    0.017566235000000    -5.304526494000000    0.121372286000000
 N    -1.062216776000000    -3.572033295000000    -0.032841129000000
 C    0.027249014000000    -2.876204733000000    0.019917649000000
 H    1.021783632000000    -3.354583910000000    0.070278930000000




