%nproc=15
%mem=70GB
%chk=TPG_BoronicAcid_BoronateEster_freq.chk
#P B3LYP/6-311++G(d,p) EmpiricalDispersion=GD3 freq(noraman) SCF=YQC

Restart from TPG_BoronicAcid_BoronateEster.log

0 1
 C   1.222763  -0.753708  -0.000035
 C  -0.039929  -1.392694   0.000035
 O  -0.152832  -2.731235   0.000105
 C  -1.264062  -0.682295   0.000025
 C  -1.186070   0.730732   0.000008
 O  -2.288803   1.497797  -0.000051
 C   0.041228   1.435678  -0.000009
 C   1.225942   0.661622  -0.000057
 O   2.441637   1.233035  -0.000081
 H  -3.093484   0.953882   0.000013
 H   2.373010   2.201873  -0.000174
 H   0.720569  -3.156117   0.000119
 B   2.521812  -1.563012  -0.000041
 O   2.497757  -2.978290   0.000057
 O   3.840085  -1.125437  -0.000102
 C   3.816301  -3.387217   0.000065
 C   4.624924  -2.254526  -0.000035
 C   4.332588  -4.666989   0.000151
 C   6.003625  -2.347422  -0.000054
 C   5.729999  -4.773803   0.000135
 C   6.545994  -3.639177   0.000033
 H   3.688825  -5.537257   0.000230
 H   6.624664  -1.460999  -0.000129
 H   6.184114  -5.757414   0.000200
 H   7.622837  -3.759042   0.000021
 B  -2.614507  -1.402581   0.000036
 O  -3.828023  -0.673912   0.000113
 O  -2.894913  -2.762987  -0.000127
 C  -4.841591  -1.611167   0.000059
 C  -4.265184  -2.877900  -0.000094
 C  -6.208010  -1.418144   0.000116
 C  -5.035196  -4.025305  -0.000198
 C  -6.999427  -2.574788   0.000014
 C  -6.425039  -3.848875  -0.000135
 H  -6.639631  -0.425420   0.000228
 H  -4.578225  -5.006433  -0.000319
 H  -8.078300  -2.476062   0.000059
 H  -7.067426  -4.721399  -0.000205
 B   0.092648   2.965351  -0.000020
 O   1.330411   3.652054  -0.000175
 O  -0.945346   3.888319   0.000209
 C   1.025408   4.998442  -0.000111
 C  -0.359831   5.132506   0.000126
 C   1.875675   6.085373  -0.000235
 C  -0.968628   6.372992   0.000255
 C   1.269577   7.349020  -0.000109
 C  -0.121023   7.488501   0.000128
 H   2.951222   5.962913  -0.000420
 H  -2.046804   6.467708   0.000442
 H   1.894428   8.234047  -0.000204
 H  -0.555556   8.481043   0.000217






