%nproc=15
%mem=70GB
%chk=TrisPhenyl_PrimaryAmine_Imine.chk
#P B3LYP/6-311++G(d,p) EmpiricalDispersion=GD3 opt SCF=YQC

Comment

0 1
 C    5.413628598000000    -1.872546979000000    -0.010594081000000
 C    5.035722949999999    -0.755661278000000    0.753536436000000
 C    3.723673695000000    -0.300430655000000    0.759525264000000
 C    2.735803795999999    -0.944625681000000    0.000449131000000
 C    3.108315992000000    -2.059076085000000    -0.765208093000000
 C    4.420719166000000    -2.513357956000000    -0.770224134000000
 C    1.334053259000000    -0.458848890000000    0.000402830000000
 C    0.268355259000000    -1.366873890000000    0.008860830000000
 C    -1.059173741000000    -0.922488890000000    0.008337830000000
 C    -1.309241741000000    0.453656110000000    0.006809830000000
 C    -0.264218741000000    1.383363110000000    0.003920830000000
 C    1.053270259000000    0.911980110000000    -0.001354170000000
 C    -0.547166741000000    2.832910110000000    0.023508830000000
 C    0.132648259000000    3.710843110000000    -0.833951170000000
 C    -0.134981741000000    5.073690110000000    -0.817152170000000
 C    -1.095013741000000    5.616633110000000    0.054395830000000
 C    -1.773249741000000    4.731796110000000    0.910653830000000
 C    -1.504821741000000    3.368908110000000    0.897304830000000
 C    -2.182774741000000    -1.891955890000000    -0.017346170000000
 C    -3.315488741000000    -1.662366890000000    -0.812060170000000
 C    -4.366923741000000    -2.569668890000000    -0.831200170000000
 C    -4.330026741000000    -3.741083890000000    -0.056511170000000
 C    -3.194045741000000    -3.964973890000000    0.739344830000000
 C    -2.141176741000000    -3.059528890000000    0.758579830000000
 H    0.474380259000000    -2.429560890000000    -0.040814170000000
 H    1.873134259000000    1.618471110000000    0.074149830000000
 H    -2.335361741000000    0.804210110000000    -0.020704170000000
 H    0.839454259000000    3.316212110000000    -1.556644170000000
 H    -2.004881741000000    2.721095110000000    1.609926830000000
 H    0.396903259000000    5.726432110000000    -1.500808170000000
 H    -2.509284741000000    5.119474110000000    1.606548830000000
 H    4.680359519000000    -3.384593294000000    -1.361290287000000
 H    2.355934167000000    -2.588063678000000    -1.339179593000000
 H    5.783140304000000    -0.232983007000000    1.339887964000000
 H    3.464345167000000    0.579450163000000    1.337108744000000
 H    -1.287700741000000    -3.244167890000000    1.400987830000000
 H    -3.142543741000000    -4.854378890000000    1.357384830000000
 H    -5.225637741000000    -2.375433890000000    -1.464217170000000
 H    -3.358715741000000    -0.779456890000000    -1.439657170000000
 N    6.758156050000000    -2.264709187000000    -0.026711276000000
 C    7.072419176000000    -3.494509467000000    0.112086716000000
 C    8.455384559000001    -3.977883457000000    0.035814765000000
 C    8.715086557999999    -5.341775081000000    0.227041260000000
 C    10.017185400000001    -5.831313417000000    0.158007824000000
 C    11.072821278999999    -4.959886705000000    -0.102917983000000
 C    10.822771745000001    -3.597399040000000    -0.294350743000000
 C    9.525638506000000    -3.107445611000000    -0.226741399000000
 H    6.310689126000000    -4.260589652000000    0.314368382000000
 H    7.892129513000000    -6.019675223000000    0.430818469000000
 H    10.207369489000000    -6.887980634000000    0.307289077000000
 H    12.087614804999999    -5.337772647000000    -0.157241045000000
 H    11.645130192999998    -2.920594544000000    -0.497244205000000
 H    9.316353040999999    -2.054884149000000    -0.373113765000000
 N    -1.431404791000000    6.976259756000000    0.062236446000000
 C    -0.516224065000000    7.866399383000000    0.085271341000000
 C    -0.800455113000000    9.304353267999998    0.025585398000000
 C    0.263181265000000    10.215119515000000    0.083856849000000
 C    0.025455170000000    11.586288064000000    0.026778769000000
 C    -1.280081151000000    12.059603614000002    -0.088898393000000
 C    -2.347354932000000    11.157889420000000    -0.147054199000000
 C    -2.112629388000000    9.790792615999999    -0.091105338000000
 H    0.545324683000000    7.593858662000000    0.168127850000000
 H    1.279753502000000    9.845406887999999    0.174551459000000
 H    0.855133318000000    12.282379465000000    0.072510785000000
 H    -1.468536773000000    13.126397150000001    -0.133515769000000
 H    -3.362585108999999    11.527643461000000    -0.237016055000000
 H    -2.928908509000001    9.080268029000001    -0.135310706000000
 N    -5.343145096000000    -4.707907311000000    -0.081980824000000
 C    -6.567596228000000    -4.361126779000000    0.022410798000000
 C    -7.677441013000000    -5.316395833000000    -0.065717875000000
 C    -8.991736011000000    -4.854388119000001    0.087221964000000
 C    -10.066524526000000    -5.736496801000000    0.006051052000000
 C    -9.836173259000001    -7.090609567000000    -0.228791044000000
 C    -8.527928785000000    -7.560267141000000    -0.381964368000000
 C    -7.455237951000000    -6.682684172000000    -0.302198882000000
 H    -6.852859938000000    -3.314987805000000    0.201986004000000
 H    -9.170068619000000    -3.799464757000000    0.270705565000000
 H    -11.079267461000001    -5.369009329000000    0.125655363000000
 H    -10.670654477999999    -7.779914074000000    -0.292470490000000
 H    -8.350264491000001    -8.614109858999999    -0.564596306000000
 H    -6.436534397000000    -7.031543842999999    -0.419035982000000




