%nproc=15
%mem=70GB
%chk=PMDA_PrimaryAmine_Ketoenamine_freq.chk
#P B3LYP/6-311++G(d,p) EmpiricalDispersion=GD3 freq(noraman) SCF=YQC NoSymm

Restart from PMDA_PrimaryAmine_Ketoenamine.log

0 1
 C   2.667164  -0.862965  -0.447133
 C   1.219746  -0.536393  -0.285281
 C   0.109015  -1.237008  -0.740212
 H   0.190622  -2.161552  -1.297617
 C  -1.114700  -0.659932  -0.422389
 C  -2.490896  -1.135531  -0.750629
 C  -1.219929   0.531871   0.295523
 C  -2.667346   0.858437   0.457388
 C  -0.109198   1.232485   0.750455
 H  -0.190804   2.157026   1.307865
 C   1.114518   0.655410   0.432628
 C   2.490712   1.130999   0.760889
 N  -3.372486  -0.180536  -0.192865
 N   3.372304   0.176009   0.203105
 O  -3.155704   1.807369   1.017812
 O  -2.808301  -2.125919  -1.359693
 O   2.808116   2.121369   1.369982
 O   3.155524  -1.811916  -1.007528
 C  -4.794362  -0.257472  -0.274746
 C   4.794176   0.252880   0.285104
 C  -5.541049   0.879720  -0.582542
 C  -6.926246   0.812256  -0.654339
 H  -5.041960   1.824664  -0.747295
 C  -7.588994  -0.403384  -0.435848
 H  -7.476624   1.716101  -0.878958
 C  -6.827431  -1.541808  -0.130936
 C  -5.445987  -1.470500  -0.044125
 H  -7.327708  -2.488452   0.040295
 H  -4.873617  -2.358443   0.185989
 C   5.445868   1.465883   0.054549
 C   6.827307   1.537139   0.141482
 H   4.873554   2.353847  -0.175629
 C   7.588802   0.398685   0.446446
 H   7.327633   2.483768  -0.029693
 C   6.925984  -0.816927   0.664895
 C   5.540793  -0.884341   0.592972
 H   7.476308  -1.720781   0.889617
 H   5.041658  -1.829266   0.757690
 H  -13.167227  -3.396164  -0.601301
 C  -13.858095  -2.562367  -0.604555
 C  -15.232114  -2.770374  -0.636810
 H  -15.624763  -3.780498  -0.668657
 C  -16.105333  -1.681521  -0.624960
 H  -17.177359  -1.842899  -0.645859
 C  -15.595079  -0.385015  -0.581158
 H  -16.268959   0.463984  -0.559647
 C  -14.218191  -0.176169  -0.561191
 H  -13.842280   0.838044  -0.510759
 C  -13.333001  -1.262738  -0.575227
 C  -11.841588  -1.107446  -0.536934
 O  -11.140754  -2.090390  -0.232796
 C  -11.246214   0.170513  -0.872925
 C  -9.894744   0.385394  -0.844309
 H  -11.868385   0.993690  -1.189653
 N  -8.977845  -0.546557  -0.500973
 H  -9.511575   1.360933  -1.119032
 H  -9.394213  -1.455397  -0.280552
 H   13.167223   3.391127   0.612590
 C   13.858033   2.557281   0.615584
 C   15.232069   2.765184   0.647816
 H   15.624790   3.775272   0.679909
 C   16.105211   1.676273   0.635627
 H   17.177249   1.837572   0.656507
 C   15.594866   0.379815   0.591511
 H   16.268686  -0.469225   0.569735
 C   14.217962   0.171068   0.571569
 H   13.841974  -0.843104   0.520888
 C   13.332849   1.257696   0.585943
 C   11.841424   1.102515   0.547692
 O   11.140639   2.085574   0.243818
 C   11.245984  -0.175480   0.883432
 C   9.894502  -0.390281   0.854793
 H   11.868119  -0.998759   1.199968
 N   8.977651   0.541801   0.511689
 H   9.511280  -1.365865   1.129287
 H   9.394066   1.450655   0.291408






