%nproc=15
%mem=70GB
%chk=TrisPhenyl_BoronicAcid_Boroxine.chk
#P B3LYP/6-311++G(d,p) EmpiricalDispersion=GD3 opt SCF=YQC

Comment

0 1
 C    5.413628598000000    -1.872546979000000    -0.010594081000000
 C    5.035722949999999    -0.755661278000000    0.753536436000000
 C    3.723673695000000    -0.300430655000000    0.759525264000000
 C    2.735803795999999    -0.944625681000000    0.000449131000000
 C    3.108315992000000    -2.059076085000000    -0.765208093000000
 C    4.420719166000000    -2.513357956000000    -0.770224134000000
 C    1.334053259000000    -0.458848890000000    0.000402830000000
 C    0.268355259000000    -1.366873890000000    0.008860830000000
 C    -1.059173741000000    -0.922488890000000    0.008337830000000
 C    -1.309241741000000    0.453656110000000    0.006809830000000
 C    -0.264218741000000    1.383363110000000    0.003920830000000
 C    1.053270259000000    0.911980110000000    -0.001354170000000
 C    -0.547166741000000    2.832910110000000    0.023508830000000
 C    0.132648259000000    3.710843110000000    -0.833951170000000
 C    -0.134981741000000    5.073690110000000    -0.817152170000000
 C    -1.095013741000000    5.616633110000000    0.054395830000000
 C    -1.773249741000000    4.731796110000000    0.910653830000000
 C    -1.504821741000000    3.368908110000000    0.897304830000000
 C    -2.182774741000000    -1.891955890000000    -0.017346170000000
 C    -3.315488741000000    -1.662366890000000    -0.812060170000000
 C    -4.366923741000000    -2.569668890000000    -0.831200170000000
 C    -4.330026741000000    -3.741083890000000    -0.056511170000000
 C    -3.194045741000000    -3.964973890000000    0.739344830000000
 C    -2.141176741000000    -3.059528890000000    0.758579830000000
 H    0.474380259000000    -2.429560890000000    -0.040814170000000
 H    1.873134259000000    1.618471110000000    0.074149830000000
 H    -2.335361741000000    0.804210110000000    -0.020704170000000
 H    0.839454259000000    3.316212110000000    -1.556644170000000
 H    -2.004881741000000    2.721095110000000    1.609926830000000
 H    0.396903259000000    5.726432110000000    -1.500808170000000
 H    -2.509284741000000    5.119474110000000    1.606548830000000
 H    4.680359519000000    -3.384593294000000    -1.361290287000000
 H    2.355934167000000    -2.588063678000000    -1.339179593000000
 H    5.783140304000000    -0.232983007000000    1.339887964000000
 H    3.464345167000000    0.579450163000000    1.337108744000000
 H    -1.287700741000000    -3.244167890000000    1.400987830000000
 H    -3.142543741000000    -4.854378890000000    1.357384830000000
 H    -5.225637741000000    -2.375433890000000    -1.464217170000000
 H    -3.358715741000000    -0.779456890000000    -1.439657170000000
 B    6.877099845000001    -2.378755996000000    -0.013483930000000
 O    7.245058066000000    -3.481249984000000    -0.768909465000000
 B    8.542044706000000    -3.934984144000000    -0.775292397000000
 O    7.850187224000000    -1.740416201000000    0.739625572000000
 B    9.150303107999999    -2.185148099000001    0.741035450000000
 O    9.492337706000001    -3.283576203000000    -0.018400678000000
 H    8.842274994000000    -4.879275193000000    -1.425895317000000
 H    9.971909557000000    -1.629543049000000    1.390168627000000
 B    -1.391326557000000    7.136497191000000    0.069089427000000
 O    -0.715888756000000    7.999329592000000    -0.779944148000000
 B    -0.974546752000000    9.348814818999999    -0.771258647000000
 O    -2.338000354000000    7.666535704000000    0.931886367000000
 B    -2.605047608000000    9.014299866000000    0.949416020000000
 O    -1.920623312000000    9.852622481999999    0.095569564000000
 H    -0.388993138000000    10.074881250000001    -1.502738294000000
 H    -3.417100439000000    9.453631339999999    1.692831157000000
 B    -5.501744608000000    -4.753430969000000    -0.071829224000000
 O    -6.621745947000000    -4.530591503000000    -0.857636807000000
 B    -7.664498532000000    -5.425269747000000    -0.875177030000000
 O    -5.455702103000001    -5.903779011000000    0.700265417000000
 B    -6.492424595000000    -6.805558438000000    0.690773296000000
 O    -7.595812033000000    -6.562391528000000    -0.098961603000000
 H    -8.616212452999999    -5.221547248000000    -1.551820012000000
 H    -6.439478591000000    -7.784968712000000    1.356401004000000




