%nproc=15
%mem=70GB
%chk=TrisPhenyl_BoronicAcid_Boroxine_freq.chk
#P B3LYP/6-311++G(d,p) EmpiricalDispersion=GD3 freq(noraman) SCF=YQC

Restart from TrisPhenyl_BoronicAcid_Boroxine.log

0 1
 C  -3.333008  -4.652748  -0.000455
 C  -3.650167  -3.535103  -0.790140
 C  -2.842348  -2.405074  -0.791417
 C  -1.683867  -2.351060  -0.000530
 C  -1.362415  -3.465375   0.790319
 C  -2.172669  -4.593659   0.789136
 C  -0.819787  -1.144822  -0.000313
 C   0.574284  -1.266493  -0.000163
 C   1.401535  -0.137829   0.000402
 C   0.809916   1.130325   0.000909
 C  -0.581159   1.282448   0.000623
 C  -1.383549   0.135967  -0.000019
 C  -1.193785   2.633872   0.000660
 C  -2.319769   2.912552   0.791231
 C  -2.891971   4.178308   0.789778
 C  -2.362910   5.212764   0.000272
 C  -1.236058   4.928767  -0.788958
 C  -0.661116   3.664247  -0.789960
 C   2.878231  -0.283026   0.000393
 C   3.682314   0.551273   0.792773
 C   5.064588   0.413824   0.791538
 C   5.696112  -0.559945   0.000153
 C   4.886988  -1.392102  -0.791139
 C   3.504407  -1.257829  -0.792155
 H   1.021647  -2.253215  -0.000480
 H  -2.461741   0.241977  -0.000275
 H   1.440860   2.011044   0.001394
 H  -2.730552   2.136742   1.427399
 H   0.193256   3.461764  -1.425874
 H  -3.756330   4.378221   1.413397
 H  -0.816680   5.710450  -1.412721
 H  -1.913840  -5.441998   1.413081
 H  -0.485224  -3.433141   1.426577
 H  -4.536680  -3.562846  -1.414085
 H  -3.093940  -1.564114  -1.427677
 H   2.901997  -1.895136  -1.429561
 H   5.354471  -2.144664  -1.416513
 H   5.669722   1.061049   1.416750
 H   3.215583   1.293733   1.430156
 B  -4.231935  -5.907304  -0.000201
 O  -3.917192  -7.008477   0.783731
 B  -4.713751  -8.126913   0.787911
 O  -5.376017  -5.963635  -0.783824
 B  -6.179051  -7.077440  -0.787218
 O  -5.845206  -8.158612   0.000602
 H  -4.432054  -9.059840   1.463233
 H  -7.153240  -7.110882  -1.462201
 B  -3.000358   6.618330  -0.000107
 O  -4.111888   6.896190   0.783141
 B  -4.682697   8.145026   0.786564
 O  -2.476860   7.637316  -0.783560
 B  -3.040407   8.889446  -0.787683
 O  -4.144314   9.140699  -0.000718
 H  -5.631935   8.367400   1.461294
 H  -2.582128   9.749840  -1.462566
 B   7.232080  -0.710915  -0.000035
 O   8.028330   0.110106   0.786152
 B   9.395229  -0.020341   0.789759
 O   7.852933  -1.671270  -0.786434
 B   9.219047  -1.809581  -0.790468
 O   9.988442  -0.981981  -0.000433
 H   10.062307   0.688161   1.467105
 H   9.735127  -2.634472  -1.467948






