%nproc=15
%mem=70GB
%chk=TPG_BoronicAcid_Boroxine_freq.chk
#P B3LYP/6-311++G(d,p) EmpiricalDispersion=GD3 freq(noraman) SCF=YQC

Restart from TPG_BoronicAcid_Boroxine.log

0 1
 C   0.710382  -1.257645  -0.000101
 C  -0.709931  -1.202010  -0.000326
 O  -1.441505  -2.321279  -0.000482
 C  -1.444517   0.013450  -0.000452
 C  -0.686133   1.215669  -0.000501
 O  -1.289618   2.408891  -0.000452
 C   0.733733   1.244220  -0.000313
 C   1.395682  -0.013751  -0.000117
 O   2.730768  -0.087880   0.000057
 H  -2.257697   2.292870  -0.000578
 H   3.114199   0.808576   0.000885
 H  -0.856867  -3.101554  -0.000707
 B   1.463764  -2.599333  -0.000200
 O   0.710792  -3.796152  -0.000264
 B   1.306237  -5.040869   0.000032
 O   2.834292  -2.752310   0.000005
 B   3.443238  -3.976616   0.000033
 O   2.673666  -5.127454   0.000099
 H   0.630969  -6.014821   0.000313
 H   4.625191  -4.061383   0.000096
 B  -2.983151   0.031939  -0.000258
 O  -3.643014   1.282543  -0.000559
 B  -5.018651   1.389520   0.000040
 O  -3.801029  -1.078417   0.000344
 B  -5.165762  -0.993272   0.001042
 O  -5.777454   0.248709   0.000951
 H  -5.524279   2.461388  -0.000506
 H  -5.830350  -1.974356   0.001482
 B   1.519111   2.567517   0.000180
 O   2.932137   2.513371   0.001102
 B   3.712817   3.651103   0.001016
 O   0.966699   3.831107  -0.000546
 B   1.722980   4.970283  -0.000601
 O   3.104379   4.878739   0.000079
 H   4.893882   3.552896   0.001917
 H   1.205840   6.036473  -0.001138






