%nproc=15
%mem=70GB
%chk=Adamantane_Aldehyde_Hydrazone_freq.chk
#P B3LYP/6-311++G(d,p) EmpiricalDispersion=GD3 freq(noraman) SCF=YQC

Restart from Adamantane_Aldehyde_Hydrazone_pbe_b3lyp-1.log

0 1
 C  -0.413246   1.510295  -1.357185
 C   0.273352  -1.360033   0.632183
 H   1.139739  -1.512662   1.281285
 H  -0.335999  -2.265326   0.705278
 C   0.831484   1.338026  -0.448440
 C  -1.318641   0.255773  -1.275153
 C  -0.532371  -0.124269   1.101801
 C   0.743845  -1.164750  -0.820283
 C   1.625449   0.103216  -0.911172
 C  -1.766849   0.052321   0.182587
 C   0.357026   1.128220   1.008477
 C  -0.496769  -0.976451  -1.730605
 H   1.980206   0.252244  -1.935258
 H  -2.358875   0.910463   0.511199
 H   1.219272   1.020407   1.671889
 H  -1.124237  -1.872151  -1.685753
 H   2.515263  -0.014802  -0.286848
 H  -2.421242  -0.821857   0.246824
 H  -0.199485   2.002295   1.359472
 H  -0.178462  -0.848723  -2.772667
 H  -0.985820   2.391515  -1.047372
 H  -0.087640   1.675379  -2.390519
 H   4.571108   8.594706  -1.789691
 C   5.170347   7.694243  -1.717481
 C   6.558017   7.782946  -1.623753
 H   7.039609   8.754161  -1.610193
 C   7.326352   6.619674  -1.558761
 H   8.406386   6.685557  -1.493091
 C   6.709649   5.373422  -1.583052
 H   7.290868   4.460020  -1.551677
 C   5.315600   5.276554  -1.653370
 C   4.722015   3.895599  -1.685944
 C   4.549939   6.446441  -1.729711
 H   3.472142   6.393475  -1.837668
 O   5.315496   2.940930  -2.143770
 N   3.450866   3.812787  -1.139068
 H   3.079850   4.603482  -0.620520
 N   2.781940   2.626120  -1.110869
 C   1.655482   2.594949  -0.519403
 H   1.223078   3.487371  -0.042741
 H  -7.479242   2.604941  -6.267120
 C  -7.676009   1.874624  -5.490551
 C  -8.883449   1.178760  -5.474303
 H  -9.622826   1.357740  -6.246732
 C  -9.143988   0.261551  -4.455145
 H  -10.085935  -0.274576  -4.435278
 C  -8.199514   0.037691  -3.459185
 H  -8.392414  -0.655762  -2.649827
 C  -6.975416   0.715033  -3.481873
 C  -6.009946   0.431456  -2.365086
 C  -6.723446   1.642649  -4.500152
 H  -5.804398   2.218372  -4.505500
 O  -6.372295   0.087941  -1.259451
 N  -4.676712   0.582490  -2.717998
 H  -4.431245   0.694076  -3.697371
 N  -3.688262   0.401368  -1.799213
 C  -2.483782   0.433654  -2.208950
 H  -2.235443   0.593039  -3.269811
 H  -4.412885  -0.900058   8.356075
 C  -3.425095  -0.454264   8.330245
 C  -2.729233  -0.225422   9.515858
 H  -3.170068  -0.505270   10.466020
 C  -1.470010   0.375317   9.478334
 H  -0.929865   0.561602   10.399621
 C  -0.907306   0.741418   8.260365
 H   0.060445   1.225577   8.213174
 C  -1.589511   0.493101   7.064350
 C  -0.924265   0.926754   5.787504
 C  -2.857419  -0.099377   7.107937
 H  -3.425828  -0.251390   6.196968
 O  -0.158548   1.867620   5.737783
 N  -1.252655   0.150408   4.688367
 H  -1.761513  -0.717826   4.825701
 N  -0.757013   0.443797   3.453390
 C  -1.014823  -0.365412   2.505814
 H  -1.610746  -1.276622   2.663113
 H   3.996301  -7.909051  -4.329725
 C   4.062963  -7.787053  -3.254622
 C   4.876750  -8.633236  -2.503619
 H   5.454802  -9.407208  -2.995777
 C   4.936682  -8.489954  -1.116647
 H   5.562797  -9.151796  -0.529217
 C   4.189618  -7.502216  -0.483910
 H   4.209164  -7.388370   0.593024
 C   3.388575  -6.633769  -1.233385
 C   2.600852  -5.599005  -0.478775
 C   3.323097  -6.788875  -2.623452
 H   2.667580  -6.161308  -3.217214
 O   2.223201  -5.769870   0.661589
 N   2.359871  -4.437459  -1.196872
 H   2.849052  -4.284967  -2.073958
 N   1.637099  -3.419355  -0.652430
 C   1.533667  -2.342575  -1.322608
 H   2.009692  -2.222923  -2.307763






