%nproc=15
%mem=70GB
%chk=2_Phenyl_H_Cyanohydrine_Benzobisoxazole_freq.chk
#P B3LYP/6-311++G(d,p) EmpiricalDispersion=GD3 freq(noraman) SCF=YQC

Restart from 2_Phenyl_H_Cyanohydrine_Benzobisoxazole.log

0 1
 C  -1.151548  -0.757838   0.000002
 C   0.052359  -1.468386  -0.000001
 C   1.169504  -0.655441   0.000000
 C   1.151548   0.757838   0.000002
 C  -0.052359   1.468386  -0.000000
 C  -1.169504   0.655441   0.000001
 H   0.094995  -2.548562  -0.000009
 H  -0.094995   2.548562  -0.000007
 N   2.462256   1.213709   0.000011
 O   2.486159  -1.040031   0.000004
 C   3.195717   0.143176   0.000003
 C   5.298753  -1.189086  -0.000243
 C   6.688936  -1.248172  -0.000250
 H   4.712149  -2.098860  -0.000425
 C   7.441607  -0.074263  -0.000012
 H   7.185168  -2.211842  -0.000443
 C   6.798064   1.165092   0.000237
 H   8.524575  -0.123683  -0.000020
 C   5.410558   1.233499   0.000245
 H   7.380775   2.079110   0.000431
 H   4.899476   2.188063   0.000438
 C   4.650221   0.053989   0.000002
 N  -2.462256  -1.213708   0.000011
 O  -2.486159   1.040031   0.000005
 C  -3.195717  -0.143176   0.000003
 C  -5.298753   1.189086  -0.000243
 C  -6.688936   1.248171  -0.000249
 H  -4.712149   2.098860  -0.000423
 C  -7.441607   0.074263  -0.000011
 H  -7.185168   2.211842  -0.000441
 C  -6.798064  -1.165092   0.000237
 H  -8.524575   0.123683  -0.000020
 C  -5.410558  -1.233499   0.000245
 H  -7.380775  -2.079110   0.000430
 H  -4.899476  -2.188063   0.000437
 C  -4.650221  -0.053989   0.000002






