%nproc=15
%mem=70GB
%chk=TrisPhenyl_BoronicAcid_Borosilicate_freq.chk
#P B3LYP/6-311++G(d,p) EmpiricalDispersion=GD3 freq(noraman) SCF=YQC NoSymm

Restart from TrisPhenyl_BoronicAcid_Borosilicate_pbe_b3lyp.log

0 1
 C   1.276511  -5.584164   0.001803
 C   1.993446  -4.677012   0.798374
 C   1.690121  -3.321054   0.796784
 C   0.652027  -2.819945  -0.003750
 C  -0.068346  -3.721562  -0.802339
 C   0.240591  -5.076100  -0.798385
 C   0.322552  -1.373189  -0.004491
 C  -1.010149  -0.946620  -0.008401
 C  -1.337440   0.413995  -0.006369
 C  -0.301309   1.354618  -0.002374
 C   1.040531   0.957484  -0.000562
 C   1.337635  -0.410034  -0.000587
 C   2.127218   1.967817  -0.000357
 C   3.272709   1.791966  -0.791991
 C   4.287100   2.741412  -0.793062
 C   4.199775   3.900814  -0.005920
 C   3.052008   4.070118   0.784963
 C   2.034358   3.124240   0.789444
 C  -2.755562   0.850635  -0.007765
 C  -3.172630   1.940301  -0.787921
 C  -4.501012   2.347506  -0.785963
 C  -5.464469   1.684712  -0.008859
 C  -5.041242   0.594843   0.768650
 C  -3.713939   0.184387   0.771711
 H  -1.803600  -1.684293  -0.012538
 H   2.372996  -0.729202   0.002166
 H  -0.542370   2.410844  -0.001011
 H   3.352916   0.917318  -1.427669
 H   1.169038   3.266998   1.426911
 H   5.160244   2.593027  -1.418733
 H   2.966336   4.953334   1.408211
 H  -0.321013  -5.756368  -1.428992
 H  -0.857968  -3.350799  -1.446216
 H   2.792180  -5.047459   1.431357
 H   2.242910  -2.644399   1.438749
 H  -3.408166  -0.643970   1.400833
 H  -5.765714   0.072565   1.383634
 H  -4.805769   3.186755  -1.401313
 H  -2.453345   2.453185  -1.416465
 B   1.615549  -7.098420   0.006121
 O   2.627846  -7.565212   0.815379
 O   0.897939  -7.954823  -0.799554
Si   3.352727  -8.996805   1.191614
Si   0.840142  -9.559627  -1.169316
 O   2.231463  -10.040532   1.815739
 O   4.019236  -9.657128  -0.170801
 H   4.399760  -8.767515   2.177882
 O   2.296174  -10.039806  -1.790183
 O   0.510207  -10.432275   0.196715
 H  -0.205592  -9.794728  -2.155603
 B   1.063568  -10.639026   1.430308
 H   0.511007  -11.364011   2.193286
 B   3.606882  -10.086788  -1.402102
 H   4.415123  -10.516290  -2.160603
 B   5.332801   4.961059  -0.011325
 O   5.212772   6.084912   0.776107
 O   6.442031   4.764253  -0.804040
Si   6.065993   7.449472   1.130896
Si   7.854834   5.527982  -1.173745
 O   7.530276   7.036360   1.780073
 O   6.305170   8.329316  -0.249342
 H   5.322147   8.252648   2.091723
 O   7.529399   7.010835  -1.830639
 O   8.757791   5.721095   0.198717
 H   8.603124   4.728878  -2.134520
 B   8.643766   6.329145   1.418546
 H   9.543320   6.240480   2.190552
 B   6.895861   8.168893  -1.472496
 H   6.857888   9.066788  -2.250575
 B  -6.947506   2.141280  -0.008281
 O  -7.865921   1.459174   0.759002
 O  -7.324865   3.222110  -0.774367
Si  -9.475445   1.512627   1.108946
Si  -8.686176   4.084683  -1.119041
 O  -9.845074   2.969313   1.800114
 O  -10.352957   1.325137  -0.280689
 H  -9.807673   0.440459   2.037206
 O  -9.814507   3.090306  -1.807808
 O  -9.301490   4.732779   0.272964
 H  -8.359545   5.158595  -2.047281
 B  -9.778313   4.297029   1.478595
 H  -10.147892   5.099627   2.273765
 B  -10.505929   1.955178  -1.485063
 H  -11.266190   1.501006  -2.278027






