%nproc=15
%mem=70GB
%chk=2_Phenyl_BoronicAcid_Borosilicate.chk
#P B3LYP/6-311++G(d,p) EmpiricalDispersion=GD3 opt SCF=YQC

Comment

0 1
 C    -0.000013000000000    -1.415145000000000    0.000000000000000
 C    0.000013000000000    1.415145000000000    0.000000000000000
 C    -1.206999000000000    -0.694755000000000    0.000000000000000
 C    1.206999000000000    0.694755000000000    0.000000000000000
 C    -1.206984000000000    0.694770000000000    0.000000000000000
 C    1.206984000000000    -0.694770000000000    0.000000000000000
 H    2.148535000000000    -1.233078000000000    0.000000000000000
 H    -2.148535000000000    1.233078000000000    0.000000000000000
 H    2.148565000000000    1.233036000000000    0.000000000000000
 H    -2.148565000000000    -1.233036000000000    0.000000000000000
 B    0.011618159000000    -2.991043949000000    0.034968827000000
 O    1.169257111000000    -3.667034895000000    0.014572024000000
 O    -1.137393229000000    -3.682723855000000    0.052557417000000
Si    1.766871262000000    -5.139778731000000    -0.155972593000000
Si    -1.718803796000000    -5.166152678000000    -0.073217621000000
 O    1.214488592000000    -6.019113450000000    1.059018911000000
 O    1.149607151000000    -5.754817964000000    -1.496641107000000
 H    3.235951874000000    -5.124309892000000    -0.196295435000000
 O    -1.158168252000000    -5.783655834000000    -1.436907324000000
 O    -1.094217535000000    -6.026134243000000    1.121033748000000
 H    -3.188166452000000    -5.173534862000000    -0.039668928000000
 B    0.076354868000000    -6.415444103000000    1.645190093000000
 H    0.107375398000000    -6.856758798000000    2.739559720000000
 B    -0.017260002000000    -6.036942197000000    -2.092881407000000
 H    -0.045771713000000    -6.203844359000000    -3.261054176000000
 B    -0.011618159000000    2.991043949000000    0.034968827000000
 O    -1.169257111000000    3.667034895000000    0.014572024000000
 O    1.137393229000000    3.682723855000000    0.052557417000000
Si    -1.766871262000000    5.139778731000000    -0.155972593000000
Si    1.718803796000000    5.166152678000000    -0.073217621000000
 O    -1.214488592000000    6.019113450000000    1.059018911000000
 O    -1.149607151000000    5.754817964000000    -1.496641107000000
 H    -3.235951874000000    5.124309892000000    -0.196295435000000
 O    1.158168252000000    5.783655834000000    -1.436907324000000
 O    1.094217535000000    6.026134243000000    1.121033748000000
 H    3.188166452000000    5.173534862000000    -0.039668928000000
 B    -0.076354868000000    6.415444103000000    1.645190093000000
 H    -0.107375398000000    6.856758798000000    2.739559720000000
 B    0.017260002000000    6.036942197000000    -2.092881407000000
 H    0.045771713000000    6.203844359000000    -3.261054176000000




