%nproc=15
%mem=70GB
%chk=N-TrisPhenyl_Aldehyde_Azine_freq.chk
#P B3LYP/6-311++G(d,p) EmpiricalDispersion=GD3 freq(noraman) SCF=YQC

Restart from N-TrisPhenyl_Aldehyde_Azine.log

0 1
 N   0.001581   0.000191  -0.528241
 C   1.415245  -0.090227  -0.540116
 C  -0.783762  -1.178744  -0.540090
 C  -0.626959   1.269753  -0.539477
 C  -0.410936  -2.288636   0.238575
 C   2.189698   0.787409   0.239091
 C  -1.773255   1.501702   0.241117
 C  -1.943149  -1.255934  -1.322359
 C  -1.173247  -3.442527   0.228485
 H   0.480985  -2.230971   0.850328
 C   2.062147  -1.054996  -1.322947
 C   3.570180   0.704755   0.228896
 H   1.693517   1.530369   0.851378
 C  -0.115910   2.312159  -1.323203
 C  -2.392250   2.738403   0.231098
 H  -2.167707   0.700603   0.854087
 C  -2.710333  -2.412685  -1.318654
 H  -2.237261  -0.407762  -1.927831
 C  -2.341960  -3.527528  -0.550622
 H  -0.886916  -4.292597   0.835050
 C   3.447552  -1.140429  -1.319376
 H   1.474925  -1.733579  -1.928898
 C   4.228506  -0.264103  -0.550856
 H   4.162948   1.377630   0.835846
 C  -0.735018   3.554499  -1.319565
 H   0.764790   2.142864  -1.929997
 C  -1.883656   3.792654  -0.549909
 H  -3.270730   2.915372   0.838942
 H  -3.603707  -2.458772  -1.932899
 H   3.934447  -1.890443  -1.934155
 H  -0.329901   4.350999  -1.935198
 C  -3.172050  -4.724679  -0.581161
 N  -2.884046  -5.781001   0.093127
 H  -4.069823  -4.707300  -1.206084
 N  -3.811535  -6.798246  -0.084117
 C  -3.529182  -7.852810   0.592722
 C  -4.364922  -9.051596   0.561449
 H  -2.633849  -7.871757   1.221092
 C  -3.987518  -10.163634   1.328841
 C  -4.757800  -11.323686   1.325208
 H  -3.085343  -10.115384   1.930120
 C  -5.916367  -11.386206   0.553449
 H  -4.454854  -12.175923   1.922771
 C  -6.301353  -10.283185  -0.214924
 H  -6.518249  -12.288004   0.548599
 C  -5.535634  -9.125348  -0.213462
 H  -7.202889  -10.331616  -0.815405
 H  -5.825325  -8.265802  -0.804867
 C   5.680374  -0.383654  -0.581671
 N   6.450818   0.393516   0.093492
 H   6.114551  -1.168798  -1.207664
 N   7.795694   0.100107  -0.084424
 C   8.567323   0.870950   0.594057
 C   10.023459   0.747765   0.562348
 H   8.135555   1.654040   1.224275
 C   10.797134   1.629031   1.332247
 C   12.186973   1.543083   1.328305
 H   10.303683   2.384063   1.935752
 C   12.821137   0.573738   0.553709
 H   12.773038   2.230281   1.927848
 C   12.059063  -0.309556  -0.217201
 H   13.903114   0.504270   0.548612
 C   10.673421  -0.226444  -0.215434
 H   12.552347  -1.063926  -0.819931
 H   10.074387  -0.905805  -0.808837
 C  -2.506904   5.109401  -0.581106
 N  -3.564654   5.387825   0.094945
 H  -2.045236   5.877781  -1.208229
 N  -3.984411   6.698651  -0.083890
 C  -5.037387   6.981132   0.595378
 C  -5.660429   8.302964   0.562589
 H  -5.498125   6.215903   1.227022
 C  -6.809853   8.531980   1.333520
 C  -7.432060   9.777729   1.328372
 H  -7.215212   7.727484   1.938707
 C  -6.912038   10.811094   0.551503
 H  -8.319749   9.941388   1.928695
 C  -5.766660   10.593141  -0.220431
 H  -7.394235   11.782162   0.545428
 C  -5.144082   9.352454  -0.217435
 H  -5.361842   11.397134  -0.824919
 H  -4.256696   9.173648  -0.811638






