%nproc=15
%mem=70GB
%chk=N-TrisPhenyl_Aldehyde_Azine.chk
#P B3LYP/6-311++G(d,p) EmpiricalDispersion=GD3 opt SCF=YQC

Comment

0 1
 N    0.000000000000000    0.000000000000000    0.000000000000000
 C    1.486664194000000    0.115830323000000    -0.171934194000000
 C    -0.789065806000000    1.237760323000000    0.199745806000000
 C    -0.613895806000000    -1.236089677000000    -0.038794194000000
 C    -0.462675806000000    2.500160323000000    -0.322134194000000
 C    2.176224194000000    -0.918259677000000    -0.846584194000000
 C    -1.765025806000000    -1.441179677000000    -0.822204194000000
 C    -2.007925806000000    1.140170323000000    0.910585806000000
 C    -1.297715806000000    3.610210323000000    -0.126194194000000
 H    0.438864194000000    2.642570323000000    -0.911754194000000
 C    2.273194194000000    1.157440323000000    0.348705806000000
 C    3.570374194000000    -0.927389677000000    -0.965384194000000
 H    1.632104194000000    -1.749019677000000    -1.289124194000000
 C    -0.125815806000000    -2.315259677000000    0.720105806000000
 C    -2.414125806000000    -2.677449677000000    -0.833324194000000
 H    -2.163745806000000    -0.629609677000000    -1.426834194000000
 C    -2.865415806000000    2.233870323000000    1.065575806000000
 H    -2.315445806000000    0.194440323000000    1.350765806000000
 C    -2.504725806000000    3.472930323000000    0.555025806000000
 H    -1.010125806000000    4.580640323000000    -0.521804194000000
 C    3.666684194000001    1.177220323000000    0.186235806000000
 H    1.821684194000000    1.969990323000000    0.911145806000000
 C    4.315594194000000    0.127230323000000    -0.457594194000000
 H    4.064904194000000    -1.761929677000000    -1.456734194000000
 C    -0.759375806000000    -3.559559677000000    0.685245806000000
 H    0.753504194000000    -2.187099677000000    1.347095806000000
 C    -1.906875806000000    -3.737209677000000    -0.084874194000000
 H    -3.314085806000000    -2.810259677000000    -1.427784194000000
 H    -3.812175806000000    2.108150323000000    1.585245806000000
 H    4.245704194000000    2.009030323000000    0.578395806000000
 H    -0.358405806000000    -4.386819677000000    1.264815806000000
 C    -3.384162784000000    4.637289823000000    0.769555137000000
 N    -3.118626628000000    5.811074014000000    0.289158338000000
 H    -4.299629452000000    4.465345309000000    1.365238143000000
 N    -4.124961412000000    6.713299493000000    0.627084602000000
 C    -3.873573721000000    7.889009944000000    0.145042760000000
 C    -4.791468450000000    9.028697113000000    0.334160106000000
 H    -2.953246290000000    8.078569726000000    -0.437322494000000
 C    -4.456278123000000    10.263450783000000    -0.229450197000000
 C    -5.317928202000000    11.351586974000000    -0.077047002000000
 H    -3.533255158000000    10.387917342000000    -0.789282748000000
 C    -6.508627961000000    11.205973309999997    0.636153458000000
 H    -5.063032768000000    12.313067863999999    -0.515961164000000
 C    -6.840816183000001    9.973929088000000    1.200692015000000
 H    -7.179756668999999    12.053755143000000    0.751598668000000
 C    -5.982972396000000    8.882894928000001    1.051074098000000
 H    -7.768954608000000    9.861752521000000    1.755508257000000
 H    -6.248754744000000    7.924608658000000    1.490687903000000
 C    5.782543824000000    0.203787175000000    -0.589363349000000
 N    6.477204856000000    -0.703356704000000    -1.200588262000000
 H    6.276319717000000    1.085347438000000    -0.140454394000000
 N    7.829313861000000    -0.367738599000000    -1.191847635000000
 C    8.532808165000000    -1.264410542000000    -1.807420833000000
 C    9.994748205000000    -1.143558448000000    -1.966508976000000
 H    8.053721489999999    -2.159245088000000    -2.245406991000000
 C    10.681819227000000    -2.146813192000000    -2.656464833000000
 C    12.063164346000001    -2.045003677000000    -2.833180557000000
 H    10.153835330000000    -3.005893490000000    -3.061544887000000
 C    12.754278406999999    -0.945706986000000    -2.321778278000000
 H    12.601471660000000    -2.821192038000000    -3.371529599000000
 C    12.067988396000001    0.053592406000000    -1.630842312000000
 H    13.829637621000000    -0.866716218000000    -2.462627111000000
 C    10.687002096000001    -0.043301366000000    -1.451606551000000
 H    12.607520931000000    0.909674545000000    -1.233509208000000
 H    10.157330247000001    0.740078095000000    -0.914971217000000
 C    -2.551750083000000    -5.063596602000000    -0.085288549000000
 N    -3.601296757000000    -5.329736634000000    -0.797103920000000
 H    -2.093185546000000    -5.839134644000000    0.555602776000000
 N    -3.983670339000000    -6.657786501000000    -0.621067939000000
 C    -5.028056229000000    -6.937240906000000    -1.334523278000000
 C    -5.629014509000000    -8.284703517000001    -1.353929531000000
 H    -5.506650222000000    -6.166362312000000    -1.966012601000000
 C    -6.747824249000000    -8.511018581000000    -2.161191578000000
 C    -7.323070498000001    -9.782489830999999    -2.207673596000000
 H    -7.175468069000000    -7.709637897000000    -2.757669210000000
 C    -6.782676485000000    -10.822458847000000    -1.450004205000000
 H    -8.191443655000000    -9.964135959000000    -2.836160326000000
 C    -5.667775076000000    -10.594781801000000    -0.642450012000000
 H    -7.230326588000000    -11.812675361000000    -1.489450576000000
 C    -5.088787415000000    -9.325560869000000    -0.592564794000000
 H    -5.247484097000000    -11.405954418000000    -0.053213167000000
 H    -4.218299113000000    -9.155079108000001    0.036242979000000




