%nproc=15
%mem=70GB
%chk=P_PrimaryAmine_Imide_freq.chk
#P B3LYP/6-311++G(d,p) EmpiricalDispersion=GD3 freq(noraman) SCF=YQC NoSymm

Restart from P_PrimaryAmine_Imide-1.log

0 1
 C   3.943830   1.972853  -0.098727
 C   4.345616   0.680843  -0.087371
 C   3.130183  -0.127511  -0.058177
 C   2.484068   1.949587  -0.089961
 N   2.020190   0.666410  -0.063039
 C   1.696624   3.115263  -0.096648
 C   0.297201   3.150898  -0.078927
 N  -0.549816   2.068694  -0.057856
 C  -1.861012   2.480715  -0.050564
 C  -0.532682   4.319616  -0.089418
 C  -1.839356   3.913954  -0.063764
 C  -2.993950   1.658570  -0.025054
 C  -2.981685   0.251935  -0.006417
 N  -1.871816  -0.542211  -0.011606
 C  -3.795509  -1.848524   0.023755
 C  -4.197260  -0.556546   0.008757
 C  -0.148788  -3.026697   0.005327
 N   0.698189  -1.944466  -0.016719
 C   2.009430  -2.356404  -0.023551
 C   1.987945  -3.789496  -0.000163
 C   0.681148  -4.195440   0.008704
 C   3.142454  -1.534144  -0.040341
 C  -1.548369  -2.991245   0.012797
 C  -2.335838  -1.825525   0.003902
 H   4.560112   2.857787  -0.110357
 H   5.354989   0.301293  -0.099041
 C   2.395958   4.438234  -0.127259
 H  -0.249374   1.101224  -0.048840
 H  -0.161237   5.330838  -0.113478
 H  -2.718391   4.537100  -0.054143
 C  -4.319971   2.352520  -0.015081
 H  -4.411833  -2.733175   0.047447
 H  -5.206770  -0.177195   0.006465
 H   0.397689  -0.977019  -0.026421
 H   2.867175  -4.412375   0.008635
 H   0.309730  -5.206911   0.016704
 C   4.468648  -2.227816  -0.036639
 C  -2.247744  -4.314370   0.029792
 C  -4.818316   2.958592  -1.172633
 C  -6.047093   3.610403  -1.167773
 H  -4.237248   2.917065  -2.086497
 C  -6.800599   3.654273   0.005956
 H  -6.427761   4.065732  -2.071692
 C  -6.320662   3.050743   1.169179
 C  -5.086068   2.410620   1.153495
 H  -6.900345   3.097394   2.080814
 H  -4.710821   1.946732   2.058114
 C   2.994218   4.901701  -1.303277
 C   3.649104   6.128135  -1.338125
 H   2.947736   4.292790  -2.198493
 C   3.702869   6.915431  -0.187049
 H   4.100427   6.480638  -2.255371
 C   3.106814   6.470863   0.993800
 C   2.463377   5.237876   1.017949
 H   3.162608   7.075814   1.888352
 H   2.008084   4.888767   1.937379
 C   4.946108  -2.863849  -1.186900
 C   6.175000  -3.515470  -1.187382
 H   4.348583  -2.846002  -2.090870
 C   6.949708  -3.528893  -0.026786
 H   6.539363  -3.994194  -2.085916
 C   6.490752  -2.895249   1.128866
 C   5.255851  -2.255606   1.118946
 H   7.086893  -2.918234   2.030736
 H   4.896887  -1.768323   2.017854
 C  -2.872811  -4.805826  -1.120691
 C  -3.527752  -6.032678  -1.111071
 H  -2.847215  -4.218553  -2.031072
 C  -3.554618  -6.792230   0.059421
 H  -3.999877  -6.406990  -2.009006
 C  -2.931727  -6.319594   1.215246
 C  -2.288443  -5.086473   1.195031
 H  -2.966699  -6.902902   2.125099
 H  -1.812286  -4.715538   2.095141
 C  -10.184346   5.039718  -0.569805
 C  -11.401059   5.269802  -1.190447
 H  -11.643796   4.792044  -2.131758
 C  -12.292386   6.139282  -0.552644
 H  -13.254973   6.346171  -1.005894
 C  -11.961916   6.748685   0.662968
 H  -12.673820   7.417821   1.132284
 C  -10.729974   6.507223   1.280428
 H  -10.461749   6.971541   2.221548
 C  -9.856807   5.643635   0.639868
 C  -8.493999   5.196597   1.040521
 C  -9.046447   4.177839  -0.994134
 N  -8.063126   4.316491   0.016922
 O  -8.950984   3.494139  -1.983454
 O  -7.862595   5.501337   2.022349
 C   5.093726   10.276070  -0.873509
 C   5.323432   11.472520  -1.532518
 H   4.839169   11.688523  -2.477015
 C   6.201403   12.379209  -0.928930
 H   6.408456   13.326721  -1.412834
 C   6.819195   12.083261   0.291336
 H   7.494867   12.806288   0.733500
 C   6.577896   10.871626   0.947804
 H   7.048710   10.630120   1.892922
 C   5.705993   9.982905   0.340773
 C   5.256997   8.634686   0.786137
 C   4.224206   9.129328  -1.256331
 N   4.368114   8.176011  -0.217814
 O   3.531132   9.007300  -2.236263
 O   5.565846   8.032756   1.784938
 C   10.322826  -4.929495  -0.627721
 C   11.528081  -5.175974  -1.264224
 H   11.753483  -4.723027  -2.221968
 C   12.431117  -6.028691  -0.620289
 H   13.385333  -6.247553  -1.085457
 C   12.123030  -6.606065   0.616649
 H   12.843553  -7.262861   1.090226
 C   10.902484  -6.348303   1.249946
 H   10.651584  -6.787828   2.207605
 C   10.017554  -5.501554   0.603076
 C   8.662146  -5.043951   1.016685
 C   9.177147  -4.078758  -1.053596
 N   8.212445  -4.190778  -0.021515
 O   9.063469  -3.421123  -2.058538
 O   8.048818  -5.322873   2.017462
 C  -4.959469  -10.168220  -0.514085
 C  -5.203742  -11.380120  -1.138724
 H  -4.741409  -11.618725  -2.088754
 C  -6.066992  -12.272067  -0.493372
 H  -6.284689  -13.230903  -0.949502
 C  -6.656497  -11.946943   0.733440
 H  -7.321333  -12.659155   1.208367
 C  -6.400723  -10.719907   1.354896
 H  -6.849634  -10.455810   2.304617
 C  -5.543600  -9.846019   0.706688
 C  -5.085094  -8.487528   1.109097
 C  -4.099630  -9.031005  -0.944289
 N  -4.219893  -8.053113   0.074170
 O  -3.429442  -8.932553  -1.942626
 O  -5.371076  -7.861828   2.100073






