%nproc=15
%mem=70GB
%chk=P_PrimaryAmine_Imide.chk
#P B3LYP/6-311++G(d,p) EmpiricalDispersion=GD3 opt SCF=YQC NoSymm

Comment

0 1
 C    3.834450000000000    2.028850000000000    0.170710000000000
 C    4.206330000000000    0.766460000000000    -0.028510000000000
 C    3.061750000000000    -0.118750000000000    -0.027720000000000
 C    2.370940000000000    1.922770000000000    0.075610000000000
 N    1.928970000000000    0.690610000000000    -0.011520000000000
 C    1.610010000000000    3.228620000000000    0.050410000000000
 C    0.261520000000000    3.197680000000000    0.091160000000000
 N    -0.610890000000000    2.132640000000000    0.135180000000000
 C    -1.936010000000000    2.503710000000000    0.103780000000000
 C    -0.610970000000000    4.367110000000000    0.089560000000000
 C    -1.888450000000000    3.964100000000000    0.143740000000000
 C    -3.061790000000000    1.761380000000000    0.025080000000000
 C    -2.951580000000000    0.254180000000000    -0.012510000000000
 N    -1.879610000000000    -0.503420000000000    -0.000070000000000
 C    -3.782560000000000    -1.754340000000000    0.057960000000000
 C    -4.212200000000000    -0.502070000000000    -0.047320000000000
 C    -0.176010000000000    -3.028340000000000    -0.060020000000000
 N    0.671370000000000    -1.928970000000000    -0.029400000000000
 C    1.995920000000000    -2.349370000000000    -0.010440000000000
 C    1.965000000000000    -3.733700000000000    0.015910000000000
 C    0.639340000000000    -4.146480000000000    -0.126480000000000
 C    3.147630000000000    -1.476470000000000    -0.015980000000000
 C    -1.620780000000000    -2.974640000000000    -0.017310000000000
 C    -2.336100000000000    -1.819480000000000    0.013870000000000
 H    4.463900000000001    2.885230000000000    0.286010000000000
 H    5.237850000000000    0.476960000000000    -0.118110000000000
 C    2.358930000000000    4.521340000000000    -0.050440000000000
 H    -0.306820000000000    1.166360000000000    0.052270000000000
 H    -0.301730000000000    5.398590000000000    0.063860000000000
 H    -2.734880000000000    4.629900000000000    0.185090000000000
 C    -4.397420000000000    2.434930000000000    -0.006460000000000
 H    -4.450990000000000    -2.596530000000000    0.127720000000000
 H    -5.226140000000000    -0.160350000000000    -0.095230000000000
 H    0.368460000000000    -0.960990000000000    -0.016620000000000
 H    2.820260000000000    -4.392510000000000    0.077770000000000
 H    0.310690000000000    -5.174130000000000    -0.203890000000000
 C    4.531580000000000    -2.102480000000000    -0.035610000000000
 C    -2.374400000000000    -4.291369999999999    0.032450000000000
 C    -4.741190000000000    3.311750000000000    -1.050370000000000
 C    -5.977000000000000    3.965120000000000    -1.062590000000000
 H    -4.031900000000000    3.519110000000000    -1.850140000000000
 C    -6.911260000000000    3.708380000000000    -0.062580000000000
 H    -6.208570000000000    4.674480000000000    -1.853500000000000
 C    -6.599060000000000    2.823450000000000    0.966560000000000
 C    -5.340520000000000    2.215570000000000    1.011330000000000
 H    -7.333480000000000    2.610180000000000    1.739570000000000
 H    -5.112220000000000    1.548090000000000    1.840350000000000
 C    3.256720000000000    4.734290000000000    -1.112880000000000
 C    4.070410000000000    5.869650000000000    -1.151690000000000
 H    3.370520000000000    3.985610000000000    -1.895730000000000
 C    3.946060000000000    6.847820000000000    -0.169600000000000
 H    4.807020000000000    5.983140000000000    -1.943480000000000
 C    3.020070000000000    6.683940000000000    0.858240000000000
 C    2.251750000000000    5.517520000000001    0.933110000000000
 H    2.906760000000000    7.458130000000000    1.613260000000000
 H    1.565100000000000    5.396900000000000    1.768870000000000
 C    4.872220000000000    -3.027410000000000    -1.039010000000000
 C    6.122890000000000    -3.651820000000000    -1.053390000000000
 H    4.145120000000000    -3.295470000000000    -1.803690000000000
 C    7.080580000000000    -3.314800000000000    -0.101320000000000
 H    6.344820000000000    -4.401200000000000    -1.808820000000000
 C    6.772130000000000    -2.389760000000000    0.892460000000000
 C    5.494670000000000    -1.823420000000000    0.950700000000000
 H    7.522030000000000    -2.113930000000000    1.629310000000000
 H    5.266900000000000    -1.133430000000000    1.760630000000000
 C    -3.297960000000000    -4.666250000000000    -0.957890000000000
 C    -3.944920000000000    -5.905850000000000    -0.903880000000000
 H    -3.528960000000000    -3.989670000000000    -1.777670000000000
 C    -3.627980000000000    -6.818279999999999    0.100320000000000
 H    -4.684150000000000    -6.165690000000000    -1.657210000000000
 C    -2.689640000000000    -6.480600000000001    1.070970000000000
 C    -2.091670000000000    -5.217730000000000    1.053630000000000
 H    -2.411560000000000    -7.200630000000000    1.836380000000000
 H    -1.358000000000000    -4.974810000000000    1.820860000000000
 C    -10.093789656000000    5.419796415000000    -0.731838338000000
 C    -11.038957542000000    6.138397372000000    -1.440850248000000
 H    -10.873810605999999    6.410748697000000    -2.478627836000000
 C    -12.211426536999999    6.496328525000000    -0.768350190000000
 H    -12.981838826000001    7.061869115000000    -1.289786389000000
 C    -12.408269240999999    6.132608639000000    0.578720927000000
 H    -13.328314514000001    6.421693827000000    1.083898838000000
 C    -11.435874295000000    5.404893114000000    1.271482327000000
 H    -11.573677133000000    5.117476550000000    2.309195458000000
 C    -10.286924758000000    5.062775530000000    0.582065806000000
 C    -9.110638718000001    4.318263251000000    1.017932951000000
 C    -8.793350747000000    4.904662637000000    -1.145911552000000
 N    -8.245318487000000    4.249689045000000    -0.058419665000000
 O    -8.394077829000000    5.083567796000000    -2.283114826000000
 O    -9.034702438000000    3.900733796000000    2.160072004000000
 C    5.882297520000000    9.739973937000000    -0.876901704000000
 C    6.673740596000000    10.622281853000000    -1.589346899000000
 H    6.981120143000000    10.403491839000001    -2.607226961000000
 C    7.058231838000000    11.803201863000000    -0.946969285000000
 H    7.680826140000000    12.525557578000001    -1.472179261000000
 C    6.648236739000000    12.070172058000001    0.374496088000000
 H    6.959089379000000    12.995572555000001    0.856432627000000
 C    5.847090400000000    11.160452039000001    1.071356336000000
 H    5.523386792000000    11.352632119000001    2.089555353000000
 C    5.480199077000000    10.001610591000000    0.411885432000000
 C    4.663395381000000    8.878857649000000    0.859305933000000
 C    5.324072263000000    8.448825906000000    -1.263272143000000
 N    4.599069896000000    7.975172600000000    -0.185314593000000
 O    5.531288698000000    7.996618909000000    -2.375579379000000
 O    4.195378517000000    8.867800066999999    1.984213362000000
 C    10.161970742999999    -5.214667202000000    -0.777307805000000
 C    11.103044247000000    -5.944712757000000    -1.480046523000000
 H    10.915072575000000    -6.268257244000000    -2.499073849000000
 C    12.301842025999999    -6.245775707000000    -0.826364973000000
 H    13.070042143000000    -6.818059551000000    -1.343691510000000
 C    12.528089997000000    -5.815996866000000    0.496413090000000
 H    13.468350260999998    -6.061488522000000    0.987231543000000
 C    11.559141832000000    -5.078187682999999    1.183302627000000
 H    11.719440572000000    -4.740190787000000    2.202375174000001
 C    10.383734690000001    -4.793192191000000    0.512765351000000
 C    9.203423946999999    -4.054887043000000    0.948310538000000
 C    8.838951153000000    -4.747419896000000    -1.176381619000000
 N    8.306847724000001    -4.054847006000000    -0.104384837000000
 O    8.412072782999999    -4.987290680000000    -2.292129829000000
 O    9.150079708000000    -3.586732040000000    2.071949299000000
 C    -5.582307639000000    -10.029276674000000    -0.486077926000000
 C    -6.343397929000000    -10.965165762000000    -1.162303290000000
 H    -6.658436407000000    -10.796815055000000    -2.187408102000000
 C    -6.687088157000000    -12.132595401000000    -0.473797919000000
 H    -7.284826370000000    -12.895690235000000    -0.969441206000000
 C    -6.267739587000000    -12.333732252000001    0.856363930000000
 H    -6.546621535999999    -13.249723002000000    1.374479821000000
 C    -5.497893822000000    -11.370743898000001    1.515932805000000
 H    -5.167449856000000    -11.511950880000001    2.540293005000000
 C    -5.171045001000000    -10.226629749000001    0.811236217000000
 C    -4.392918511000000    -9.060078082000000    1.213236122000000
 C    -5.068659528000001    -8.735864196000000    -0.923354237000000
 N    -4.359878637000000    -8.196108483000000    0.134124739000000
 O    -5.291601992000000    -8.334670424000000    -2.052069179000000
 O    -3.925151284000000    -8.989238022000000    2.336069275000000




