%nproc=15
%mem=70GB
%chk=3_Phenyl_Nitrile_Triazine.chk
#P B3LYP/6-311++G(d,p) EmpiricalDispersion=GD3 opt SCF=YQC

Comment

0 1
 C    1.212954000000000    0.700272000000000    0.000000000000000
 C    1.208877000000000    -0.698223000000000    0.000000000000000
 C    -0.000137000000000    -1.400767000000000    0.000000000000000
 C    -1.209188000000000    -0.698053000000000    0.000000000000000
 C    -1.213163000000000    0.700261000000000    0.000000000000000
 C    0.000000000000000    1.395989000000000    0.000000000000000
 H    -2.145136000000000    -1.238581000000000    0.000000000000000
 H    -0.000098000000000    2.476797000000000    0.000000000000000
 H    2.144938000000000    -1.238545000000000    0.000000000000000
 C    2.494556990000000    1.440173037000000    -0.000000000000000
 N    2.453854838000000    2.784150799000000    -0.000000000000000
 C    3.636760931000000    3.390690218000000    -0.000000000000000
 N    3.638103063000000    0.732797532000000    0.000000000000000
 C    4.754856548000000    1.453825462000000    0.000000000000000
 N    4.828481459000000    2.787512903000000    -0.000000000000000
 H    5.694000977000000    0.907472198000000    0.000000000000000
 H    3.633218162000000    4.477190442000000    -0.000000000000000
 C    -2.494822812000000    1.440063606000000    0.000000000000000
 N    -3.638309149000000    0.732693910000000    0.000000000000000
 C    -4.755123800000000    1.453722292000000    0.000000000000000
 N    -2.454145503000000    2.784096002000000    0.000000000000000
 C    -3.637020615000000    3.390582679000000    0.000000000000000
 N    -4.828770801000000    2.787362727000000    0.000000000000000
 H    -3.633562171000000    4.477082651000000    0.000000000000000
 H    -5.694226277000000    0.907295879000000    0.000000000000000
 C    -0.000285138000000    -2.880618258000000    0.000000000000000
 N    1.183933298000000    -3.517453861000000    0.000000000000000
 C    1.117651371000000    -4.845144939000000    0.000000000000000
 N    -1.184714840000000    -3.517174623000000    0.000000000000000
 C    -1.118770501000000    -4.844830816000000    0.000000000000000
 N    -0.000634870000000    -5.575526052000000    0.000000000000000
 H    -2.061542224000000    -5.384900838000000    0.000000000000000
 H    2.060315841000000    -5.385403197000000    0.000000000000000




