%nproc=15
%mem=70GB
%chk=3_Phenyl_Nitrile_Triazine_freq.chk
#P B3LYP/6-311++G(d,p) EmpiricalDispersion=GD3 freq(noraman) SCF=YQC

Restart from 3_Phenyl_Nitrile_Triazine.log

0 1
 C   0.000193  -1.400773   0.000000
 C   1.209237  -0.698088   0.000000
 C   1.213062   0.700301   0.000000
 C   0.000000   1.395990   0.000000
 C  -1.212941   0.700143   0.000000
 C  -1.208906  -0.698246   0.000000
 H  -0.000064   2.476813   0.000000
 H  -2.144896  -1.238699   0.000000
 H   2.145288  -1.238449   0.000000
 C   0.000187  -2.882808   0.000000
 N  -1.183923  -3.517369   0.000000
 C  -1.118113  -4.845395   0.000000
 N   1.184255  -3.517476   0.000000
 C   1.118331  -4.845486   0.000000
 N   0.000064  -5.575816   0.000000
 H   2.061150  -5.385302   0.000000
 H  -2.060989  -5.385109   0.000000
 C  -2.496453   1.441100   0.000000
 N  -2.454017   2.783853   0.000000
 C  -3.637065   3.390796   0.000000
 N  -3.638090   0.732919   0.000000
 C  -4.755249   1.453956   0.000000
 N  -4.828677   2.787558   0.000000
 H  -5.694123   0.907311   0.000000
 H  -3.633106   4.477207   0.000000
 C   2.496410   1.441544   0.000000
 N   3.638212   0.733685   0.000000
 C   4.755203   1.455021   0.000000
 N   2.453615   2.784298   0.000000
 C   3.636483   3.391555   0.000000
 N   4.828275   2.788633   0.000000
 H   3.632245   4.477965   0.000000
 H   5.694210   0.908604   0.000000






