%nproc=15
%mem=70GB
%chk=BiPhenyl_PrimaryAmine_Imide.chk
#P B3LYP/6-311++G(d,p) EmpiricalDispersion=GD3 opt SCF=YQC NoSymm

Comment

0 1
 C    -0.000000000000000    3.577958000000000    -0.000000182000000
 C    1.133739000000000    2.852350000000000    -0.402520182000000
 C    1.135339000000000    1.463226000000000    -0.401762182000000
 C    -0.000000000000000    0.741600000000000    -0.000000182000000
 C    -1.135339000000000    1.463225000000000    0.401761818000000
 C    -1.133738000000000    2.852349000000000    0.402519818000000
 C    -0.000000000000000    -0.741600000000000    -0.000000182000000
 C    -1.135339000000000    -1.463226000000000    -0.401762182000000
 C    -1.133739000000000    -2.852350000000000    -0.402520182000000
 C    -0.000000000000000    -3.577958000000000    -0.000000182000000
 C    1.133738000000000    -2.852349000000000    0.402519818000000
 C    1.135339000000000    -1.463225000000000    0.401761818000000
 H    -2.020512000000000    -3.385811000000000    -0.727052182000000
 H    -2.020512000000000    3.385812000000000    0.727052818000000
 H    2.020512000000000    -3.385812000000000    0.727052818000000
 H    2.020512000000000    3.385811000000000    -0.727052182000000
 H    -2.015826000000000    -0.929067000000000    -0.740072182000000
 H    -2.015827000000000    0.929068000000000    0.740072818000000
 H    2.015826000000000    0.929067000000000    -0.740072182000000
 H    2.015827000000000    -0.929068000000000    0.740072818000000
 C    0.559751615000000    7.192988593000000    -0.398646053000000
 C    1.156590199000000    8.366803546000000    -0.820984444000000
 H    2.050189437000000    8.351339360000001    -1.437160018000000
 C    0.562460234000000    9.568695924000000    -0.424097963000000
 H    0.999837575000000    10.515870706999999    -0.735269871000000
 C    -0.598193584000000    9.568520377000000    0.374978057000000
 H    -1.044708274000000    10.515559902000000    0.673305129000000
 C    -1.181399508000000    8.366431199999999    0.787158395000000
 H    -2.075510054000000    8.350688638999999    1.402597222000000
 C    -0.574306025000000    7.192795611000000    0.379185814000000
 C    -0.935706883000000    5.803403051000000    0.637846373000000
 C    0.930575751000000    5.803696189000000    -0.644240977000000
 N    -0.001115923000000    5.009637194000000    -0.001287399000000
 O    1.905896859000000    5.537942615000000    -1.324521052000000
 O    -1.907559252000000    5.537409820000000    1.322922539000000
 C    -0.559751723000000    -7.192990613000000    -0.398645536000000
 C    -1.156590421000000    -8.366805588000000    -0.820983705000000
 H    -2.050189827000000    -8.351341433000000    -1.437159037000000
 C    -0.562460349000000    -9.568697945999999    -0.424097324000000
 H    -0.999837775000000    -10.515872743999999    -0.735269065000000
 C    0.598193685000000    -9.568522357999999    0.374978381000000
 H    1.044708457000000    -10.515561868000001    0.673305380000000
 C    1.181399722000000    -8.366433160000000    0.787158500000000
 H    2.075510434000000    -8.350690567999999    1.402597083000000
 C    0.574306127000000    -7.192797592000000    0.379186024000000
 C    0.935707056000000    -5.803405019000000    0.637846414000000
 C    -0.930575926000000    -5.803698221000000    -0.644240430000000
 N    0.001115923000000    -5.009639194000000    -0.001287145000000
 O    -1.905897219000000    -5.537944683000000    -1.324520253000000
 O    1.907559611000000    -5.537411753000000    1.322922303000000




