%nproc=15
%mem=70GB
%chk=BiPhenyl_PrimaryAmine_Imide_freq.chk
#P B3LYP/6-311++G(d,p) EmpiricalDispersion=GD3 freq(noraman) SCF=YQC NoSymm

Restart from BiPhenyl_PrimaryAmine_Imide.log

0 1
 C  -0.004767   3.551969  -0.008391
 C   1.133047   2.854487  -0.417171
 C   1.126466   1.465122  -0.420758
 C  -0.000993   0.741083  -0.008354
 C  -1.130382   1.462102   0.404056
 C  -1.140693   2.851445   0.400434
 C   0.000993  -0.741084  -0.008354
 C  -1.126466  -1.465123  -0.420758
 C  -1.133047  -2.854489  -0.417170
 C   0.004767  -3.551970  -0.008391
 C   1.140693  -2.851447   0.400433
 C   1.130383  -1.462104   0.404055
 H  -2.006448  -3.395965  -0.753282
 H  -2.015537   3.390587   0.736550
 H   2.015537  -3.390589   0.736550
 H   2.006448   3.395963  -0.753283
 H  -2.005210  -0.935588  -0.769704
 H  -2.007698   0.930219   0.753026
 H   2.005210   0.935586  -0.769705
 H   2.007698  -0.930220   0.753025
 C   0.304296   7.188318  -0.628948
 C   0.628769   8.368150  -1.277991
 H   1.116452   8.354369  -2.245057
 C   0.301850   9.565932  -0.633228
 H   0.539421   10.511201  -1.107399
 C  -0.327367   9.565062   0.616730
 H  -0.567424   10.509670   1.090965
 C  -0.651132   8.366381   1.261415
 H  -1.138775   8.351252   2.228480
 C  -0.323552   7.187450   0.612294
 C  -0.534815   5.775974   1.036915
 C   0.519306   5.777432  -1.053649
 N  -0.006687   4.977420  -0.008386
 O   1.030730   5.369536  -2.067347
 O  -1.045147   5.366653   2.050588
 C  -0.304296  -7.188319  -0.628947
 C  -0.628769  -8.368151  -1.277991
 H  -1.116452  -8.354370  -2.245056
 C  -0.301850  -9.565933  -0.633227
 H  -0.539421  -10.511202  -1.107399
 C   0.327367  -9.565063   0.616730
 H   0.567425  -10.509672   1.090965
 C   0.651132  -8.366382   1.261415
 H   1.138775  -8.351253   2.228480
 C   0.323552  -7.187451   0.612295
 C   0.534815  -5.775975   1.036915
 C  -0.519306  -5.777434  -1.053649
 N   0.006687  -4.977421  -0.008386
 O  -1.030730  -5.369537  -2.067346
 O   1.045147  -5.366654   2.050588






