%nproc=15
%mem=70GB
%chk=TetraPhenylMethane_BoronicAcid_Borosilicate_freq.chk
#P B3LYP/6-311++G(d,p) EmpiricalDispersion=GD3 freq(noraman) SCF=YQC NoSymm

Restart from TetraPhenylMethane_BoronicAcid_Borosilicate_pbe_b3lyp-3.log

0 1
 C  -0.000005   0.000415  -0.000559
 C   2.898507  -1.252347   3.042845
 C  -2.895201  -3.039229  -1.269967
 C   2.914332   1.266355  -3.023302
 C  -2.917672   3.026922   1.248652
 C   2.079140  -2.195938   2.411564
 C  -2.069525  -2.409105  -2.208822
 C   2.086204   2.206203  -2.397894
 C  -2.095841   2.400363   2.193247
 C   1.129731  -1.817094   1.464007
 C  -1.121068  -1.462790  -1.824526
 C   1.131785   1.823035  -1.457138
 C  -1.140451   1.458376   1.815556
 C   0.962834  -0.474092   1.116886
 C  -0.961490  -1.115825  -0.480596
 C   0.968481   0.479280  -1.111234
 C  -0.969844   1.112299   0.472751
 C   1.799442   0.473362   1.728773
 C  -1.804342  -1.726597   0.462031
 C   1.813659  -0.464367  -1.717193
 C  -1.808792   1.719370  -0.475731
 C   2.738493   0.094981   2.675878
 C  -2.742472  -2.672443   0.078255
 C   2.757761  -0.081705  -2.657540
 C  -2.753814   2.660982  -0.098493
 H   2.189272  -3.245039   2.663160
 H  -2.173917  -2.660605  -3.258532
 H   2.193395   3.255803  -2.648678
 H  -2.208782   2.651230   3.242223
 H   0.525344  -2.580132   0.992662
 H  -0.511661  -0.992272  -2.584074
 H   0.520649   2.583320  -0.990068
 H  -0.534309   0.990502   2.579336
 H   1.715792   1.516202   1.446597
 H  -1.726342  -1.444489   1.505327
 H   1.732693  -1.507583  -1.435622
 H  -1.722189   1.437718  -1.518472
 H   3.368435   0.847682   3.136702
 H  -3.377394  -3.132369   0.827312
 H   3.394405  -0.831528  -3.113825
 H  -3.385469   3.118183  -0.851968
 B   3.955139  -1.679358   4.095862
 O   4.748411  -0.720223   4.685759
 O   4.085422  -3.010424   4.425392
Si   5.964496  -0.620300   5.793411
Si   4.996760  -3.956313   5.420840
 O   5.438004  -1.203015   7.249438
 O   7.259033  -1.512546   5.279540
 H   6.368656   0.770394   5.948891
 O   6.595293  -3.799858   5.025448
 O   4.770634  -3.489030   6.991471
 H   4.596749  -5.348740   5.269944
 B   4.941497  -2.370651   7.760054
 H   4.648697  -2.415144   8.911326
 B   7.538667  -2.811883   4.956679
 H   8.639010  -3.092129   4.604963
 B  -3.950888  -4.090702  -1.703083
 O  -4.750824  -4.679139  -0.748599
 O  -4.073752  -4.420268  -3.034845
Si  -5.969494  -5.784553  -0.655688
Si  -4.981230  -5.414281  -3.985941
 O  -7.257886  -5.268399  -1.555492
 O  -5.442284  -7.241582  -1.235222
 H  -6.382037  -5.939177   0.732638
 O  -4.760558  -6.985255  -3.517191
 O  -6.579945  -5.016092  -3.838834
 H  -4.572824  -5.264243  -5.376022
 B  -7.529119  -4.945370  -2.856567
 H  -8.627114  -4.591719  -3.143510
 B  -4.939640  -7.753319  -2.399739
 H  -4.648725  -8.905143  -2.442265
 B   3.976671   1.698294  -4.068539
 O   4.778756   0.742914  -4.652584
 O   4.103188   3.029978  -4.397032
Si   6.003762   0.648879  -5.750888
Si   5.017486   3.980257  -5.385553
 O   5.485825   1.229528  -7.210796
 O   7.290201   1.546945  -5.226892
 H   6.415510  -0.739901  -5.903549
 O   6.613722   3.831124  -4.978272
 O   4.805218   3.512212  -6.957894
 H   4.609908   5.370789  -5.237454
 B   4.987472   2.394730  -7.725165
 H   4.703284   2.437844  -8.878646
 B   7.561216   2.847639  -4.902154
 H   8.657504   3.133142  -4.542100
 B  -3.980973   4.073699   1.674449
 O  -4.776406   4.659188   0.714405
 O  -4.114920   4.402157   3.005416
Si  -5.998740   5.759850   0.613333
Si  -5.033158   5.392016   3.950487
 O  -7.291401   5.238219   1.503795
 O  -5.481408   7.218703   1.197181
 H  -6.402050   5.913450  -0.777816
 O  -4.815491   6.964077   3.483993
 O  -6.629188   4.987461   3.791918
 H  -4.634021   5.242981   5.343365
 B  -7.570860   4.913462   2.802697
 H  -8.669513   4.555320   3.081429
 B  -4.989353   7.731912   2.365564
 H  -4.703272   8.884847   2.410683






