%nproc=15
%mem=70GB
%chk=ETTA_Aldehyde_Hydrazone.chk
#P B3LYP/6-311++G(d,p) EmpiricalDispersion=GD3 opt SCF=YQC

Comment

0 1
 C    -0.673043696000000    -0.061281087000000    0.099838696000000
 C    0.676216304000000    0.084438913000000    -0.077921304000000
 C    -1.445563696000000    0.859668913000000    0.987758696000000
 C    -1.208593696000000    0.910808913000000    2.368608696000000
 H    -0.435593696000000    0.291168913000000    2.815748696000000
 C    -1.956453696000000    1.762468913000000    3.184708696000000
 H    -1.756043696000000    1.803278913000000    4.251888696000000
 C    -2.958213696000000    2.558248913000000    2.631708696000000
 C    -3.215433696000000    2.502618913000000    1.263248696000000
 H    -4.001643696000000    3.116068913000000    0.831638696000000
 C    -2.465153696000000    1.655188913000000    0.445338696000000
 H    -2.681203696000000    1.618718913000000    -0.619611304000000
 C    1.423956304000000    1.217358913000000    0.545288696000000
 C    1.186576304000000    2.544388913000000    0.160958696000000
 H    0.432056304000000    2.771628913000000    -0.587751304000000
 C    1.910456304000000    3.588888913000000    0.739918696000000
 H    1.711366304000000    4.615018913000000    0.443058696000000
 C    2.886286304000000    3.315958913000000    1.697168696000000
 C    3.142086304000000    1.999178913000000    2.075248696000000
 H    3.907026304000000    1.784298913000000    2.816488696000000
 C    2.417466304000000    0.953908913000000    1.499138696000000
 H    2.631376304000000    -0.068851087000000    1.799648696000000
 C    -1.412513696000000    -1.154241087000000    -0.600071304000000
 C    -1.922953696000000    -2.232601087000000    0.134698696000000
 H    -1.770443696000000    -2.283151087000000    1.209878696000000
 C    -2.626883696000000    -3.253351087000000    -0.507091304000000
 H    -3.013833696000000    -4.089711087000000    0.068518696000000
 C    -2.834543696000000    -3.198741087000000    -1.884751304000000
 C    -2.343603696000000    -2.122491087000001    -2.622201304000000
 H    -2.507323696000000    -2.077791087000000    -3.695421304000000
 C    -1.638713696000000    -1.101381087000000    -1.982691304000000
 H    -1.261323696000000    -0.266561087000000    -2.567421304000000
 C    1.439886304000000    -0.894691087000000    -0.907871304000000
 C    1.681336304000000    -2.196721087000000    -0.447761304000000
 H    1.299246304000000    -2.515401087000000    0.518518696000000
 C    2.406656304000000    -3.098111087000000    -1.228831304000000
 H    2.581246304000000    -4.108341087000000    -0.868861304000000
 C    2.903116304000000    -2.703191087000000    -2.470121304000000
 C    2.679966304000000    -1.406181087000000    -2.930431304000000
 H    3.069876304000000    -1.097111087000000    -3.896341304000000
 C    1.955636304000000    -0.502771087000000    -2.150401304000000
 H    1.790596304000000    0.507088913000000    -2.517471304000000
 H    -8.150772613000001    7.578700984000000    6.638203355000000
 C    -7.426167208000000    7.011978008000000    7.218329475000000
 C    -7.416613346000000    7.119903572000000    8.607607707000000
 H    -8.132762893000001    7.766110773000000    9.109200404999999
 C    -6.481167051000000    6.407571889000000    9.353219756000000
 H    -6.462293663000000    6.496922830000000    10.436564206000000
 C    -5.559584190000000    5.580327694000000    8.707898287000001
 H    -4.829883151000000    5.033364002000000    9.303685955000001
 C    -5.561724859000000    5.456065434000000    7.309296367000000
 C    -4.528815003000000    4.565551896000000    6.688970686000000
 C    -6.499997553000000    6.189277729000000    6.568100270000000
 H    -6.527250790000000    6.165716395000000    5.485073845000000
 O    -3.613219257000000    4.139099698000000    7.389180928000001
 N    -4.682624301999999    4.275601376000000    5.339452320000000
 H    -5.487075773000000    4.583002705000000    4.813362083000000
 N    -3.742429710000000    3.517045804000000    4.707570704000000
 C    -3.910033571000000    3.349260398999999    3.435700590000000
 H    -4.763166414000000    3.798676425000000    2.896560915000000
 H    7.984367569000000    9.422715090000002    3.919037949000000
 C    8.068498231000000    8.465634189999999    4.428638207000000
 C    8.998709953000001    8.308020111999999    5.454161081000000
 H    9.635626068000001    9.139726913000001    5.745109212000000
 C    9.119983614000001    7.080209060000000    6.099286064000000
 H    9.851860487000000    6.948810511000000    6.892422658000000
 C    8.303755955000000    6.011538892000000    5.722717069000000
 H    8.413600578000000    5.055133185000000    6.232440635000000
 C    7.357093649000000    6.157456227999999    4.696037162000000
 C    6.532853070000000    4.959508508000000    4.335108070000000
 C    7.253766765000000    7.395154982000000    4.044306449000000
 H    6.570274900000000    7.559082778000000    3.219557603000000
 O    6.839596960000000    3.864274522000000    4.800771180000000
 N    5.456042278000000    5.174859284000000    3.484795781000000
 H    5.189596740000000    6.099505749000000    3.180749119000000
 N    4.704436715000000    4.113313658000000    3.076314739000000
 C    3.764788527000000    4.376928578000000    2.226923757000000
 H    3.587577050000000    5.401675654000000    1.854134909000000
 H    -8.207761660999999    -8.245831141000000    -5.609669726000000
 C    -7.879751651000000    -8.490072872000001    -4.601934815000000
 C    -8.341827944000000    -9.652170186999999    -3.987240955000000
 H    -9.025339722000000    -10.313086244999997    -4.514546148000000
 C    -7.936078575000000    -9.961159279000000    -2.691746178000000
 H    -8.302463583000000    -10.860836504000000    -2.203568025000000
 C    -7.060703609000000    -9.110004584000000    -2.013998377000000
 H    -6.756203935000000    -9.361558662000000    -0.998815474000000
 C    -6.581210194000000    -7.939283038000000    -2.623120819000000
 C    -5.661834359000000    -7.066585495000000    -1.824454334000000
 C    -7.007913954000000    -7.631667193000000    -3.923360784000000
 H    -6.704102875000000    -6.724451300000000    -4.432185178000000
 O    -5.517507043000000    -7.294785431000000    -0.625468995000000
 N    -5.021409539000000    -6.041762623000000    -2.508941408000000
 H    -5.106428895000000    -5.929533206000000    -3.508233633000000
 N    -4.217299046000000    -5.180576861000000    -1.823075385000000
 C    -3.713055831000000    -4.206691793000000    -2.509503266000000
 H    -3.926751128000000    -4.081390250000000    -3.586125691000000
 H    7.703679621000000    -7.159792377000000    -7.501314338000000
 C    7.384459551000000    -7.603778193000000    -6.561234882000000
 C    7.817355066000000    -8.883331596000000    -6.218922491000000
 H    8.473856489999999    -9.434012185000000    -6.888105519000000
 C    7.399283193000000    -9.461367023999999    -5.023303622000000
 H    7.725182338000000    -10.463741950999999    -4.756828022000000
 C    6.553423068000000    -8.754611880000001    -4.165920661000000
 H    6.229897714000000    -9.221612895000000    -3.236492219000000
 C    6.114762713000000    -7.461785596000000    -4.494113158000000
 C    5.192240185000001    -6.775917141000000    -3.533250144000000
 C    6.531640568000000    -6.895503694000000    -5.707729750000000
 H    6.196916097000000    -5.918201785000001    -6.034967615000000
 O    4.705010157000000    -7.424969129000000    -2.610314694000000
 N    4.949375586000000    -5.426555012000000    -3.754986603000000
 H    5.424437139000000    -4.908215917000000    -4.478899433000000
 N    4.073901412000000    -4.763587705000000    -2.947109061000000
 C    3.839043093000000    -3.529603157000000    -3.256980469000000
 H    4.318173820000000    -3.046514336000000    -4.127348747000000




