%nproc=15
%mem=70GB
%chk=ETTA_Aldehyde_Hydrazone_freq.chk
#P B3LYP/6-311++G(d,p) EmpiricalDispersion=GD3 freq(noraman) SCF=YQC

Restart from ETTA_Aldehyde_Hydrazone.log

0 1
 C   0.086366  -0.676979  -0.686189
 C  -0.086487   0.676987  -0.686168
 C  -1.050319  -1.627993  -0.556311
 C  -2.044042  -1.454470   0.424405
 H  -1.982098  -0.604887   1.093197
 C  -3.094340  -2.347002   0.549292
 H  -3.849836  -2.205472   1.312361
 C  -3.191028  -3.455551  -0.310097
 C  -2.193075  -3.644368  -1.276340
 H  -2.244606  -4.500083  -1.942437
 C  -1.134904  -2.751090  -1.390253
 H  -0.366849  -2.919664  -2.136153
 C  -1.426672   1.309228  -0.817865
 C  -2.332228   0.900701  -1.805656
 H  -2.055054   0.101855  -2.482286
 C  -3.579976   1.500099  -1.918135
 H  -4.265774   1.165524  -2.690237
 C  -3.963186   2.530599  -1.048276
 C  -3.051903   2.956330  -0.066314
 H  -3.340986   3.752165   0.609116
 C  -1.805508   2.361775   0.035205
 H  -1.110566   2.703069   0.793946
 C   1.426574  -1.309183  -0.817888
 C   1.805420  -2.361749   0.035150
 H   1.110471  -2.703091   0.793863
 C   3.051836  -2.956264  -0.066367
 H   3.340934  -3.752113   0.609039
 C   3.963121  -2.530469  -1.048299
 C   3.579896  -1.499950  -1.918130
 H   4.265699  -1.165332  -2.690210
 C   2.332127  -0.900592  -1.805651
 H   2.054938  -0.101727  -2.482252
 C   1.050230   1.627970  -0.556288
 C   2.043950   1.454400   0.424419
 H   1.981985   0.604808   1.093197
 C   3.094278   2.346899   0.549308
 H   3.849778   2.205338   1.312368
 C   3.190991   3.455455  -0.310068
 C   2.193038   3.644317  -1.276301
 H   2.244592   4.500040  -1.942385
 C   1.134837   2.751073  -1.390216
 H   0.366779   2.919679  -2.136104
 H  -9.840732  -8.238472  -0.885875
 C  -9.573393  -7.823164   0.079127
 C  -10.207525  -8.274803   1.235107
 H  -10.960459  -9.052294   1.172096
 C  -9.880550  -7.715641   2.471349
 H  -10.378138  -8.059151   3.371072
 C  -8.920435  -6.712822   2.552083
 H  -8.667490  -6.254327   3.500209
 C  -8.262189  -6.270901   1.399081
 C  -7.246034  -5.175862   1.563445
 C  -8.602376  -6.826817   0.159588
 H  -8.144618  -6.460462  -0.752831
 O  -7.311992  -4.348940   2.448052
 N  -6.222179  -5.209207   0.625301
 H  -6.134668  -6.019861   0.018729
 N  -5.249140  -4.266441   0.619173
 C  -4.288755  -4.414844  -0.215172
 H  -4.252584  -5.273885  -0.899642
 H  -10.906299   6.524004  -2.871868
 C  -10.557970   6.513301  -1.845351
 C  -11.386551   6.966855  -0.820594
 H  -12.386550   7.318883  -1.047459
 C  -10.922185   6.978639   0.495496
 H  -11.561645   7.338341   1.293492
 C  -9.636838   6.534521   0.786372
 H  -9.253227   6.553643   1.799092
 C  -8.807642   6.055289  -0.233782
 C  -7.428024   5.603953   0.155147
 C  -9.273992   6.056469  -1.554207
 H  -8.628380   5.741300  -2.366671
 O  -6.831250   6.065848   1.104464
 N  -6.910427   4.603571  -0.657976
 H  -7.522431   4.146100  -1.327997
 N  -5.663568   4.114768  -0.455236
 C  -5.287423   3.132538  -1.185948
 H  -5.948523   2.699944  -1.949639
 H   10.906389  -6.523606  -2.871899
 C   10.558043  -6.512944  -1.845387
 C   11.386621  -6.966506  -0.820631
 H   12.386633  -7.318498  -1.047491
 C   10.922234  -6.978343   0.495451
 H   11.561691  -7.338052   1.293447
 C   9.636870  -6.534271   0.786320
 H   9.253242  -6.553435   1.799033
 C   8.807675  -6.055031  -0.233833
 C   7.428039  -5.603747   0.155089
 C   9.274047  -6.056157  -1.554251
 H   8.628439  -5.740983  -2.366715
 O   6.831265  -6.065685   1.104385
 N   6.910422  -4.603360  -0.658015
 H   7.522421  -4.145852  -1.328016
 N   5.663546  -4.114599  -0.455276
 C   5.287380  -3.132362  -1.185968
 H   5.948475  -2.699728  -1.949641
 H   9.840847   8.238172  -0.885826
 C   9.573501   7.822858   0.079172
 C   10.207657   8.274459   1.235153
 H   10.960616   9.051926   1.172149
 C   9.880674   7.715289   2.471390
 H   10.378279   8.058769   3.371115
 C   8.920527   6.712500   2.552116
 H   8.667574   6.253998   3.500237
 C   8.262257   6.270617   1.399112
 C   7.246069   5.175608   1.563466
 C   8.602453   6.826542   0.159625
 H   8.144676   6.460215  -0.752796
 O   7.312007   4.348669   2.448058
 N   6.222209   5.209000   0.625328
 H   6.134712   6.019674   0.018780
 N   5.249143   4.266263   0.619190
 C   4.288750   4.414714  -0.215137
 H   4.252594   5.273774  -0.899585






