%nproc=15
%mem=70GB
%chk=ExtendedTrisPhenyl_Hydrazide_Hydrazone_freq.chk
#P B3LYP/6-311++G(d,p) EmpiricalDispersion=GD3 freq(noraman) SCF=YQC

Restart from ExtendedTrisPhenyl_Hydrazide_Hydrazone.log

0 1
 C   2.240490  -1.732589   0.515507
 C   1.114227  -0.863757   0.515634
 C   1.294227   0.527690   0.515350
 H   2.294908   0.939534   0.515816
 C   0.187187   1.389727   0.515319
 C   0.377024   2.799433   0.515075
 C  -1.107877   0.849929   0.515609
 H  -1.964888   1.510641   0.516333
 C  -1.300856  -0.539845   0.515928
 C  -2.616439  -1.080723   0.516155
 C  -0.185846  -1.391491   0.516092
 H  -0.329545  -2.464032   0.517158
 C  -3.735782  -1.539706   0.516216
 C  -5.051784  -2.074849   0.513966
 C   0.539774   3.998233   0.515147
 C   0.731437   5.405893   0.514132
 C   3.198164  -2.471821   0.515377
 C   4.321986  -3.340883   0.513656
 C  -6.173007  -1.223435   0.480276
 C  -7.455240  -1.748981   0.481410
 H  -6.022637  -0.151028   0.457756
 C  -7.659446  -3.134001   0.496565
 H  -8.321256  -1.098675   0.474530
 C  -6.547192  -3.984387   0.544755
 C  -5.259237  -3.464953   0.555373
 H  -6.676589  -5.058624   0.615386
 H  -4.404253  -4.127881   0.606685
 C   5.628229  -2.821757   0.551143
 C   6.724361  -3.674440   0.541274
 H   5.771992  -1.749304   0.598885
 C   6.547780  -5.063507   0.497767
 H   7.718300  -3.246404   0.608934
 C   5.247586  -5.582813   0.486467
 C   4.149023  -4.738187   0.484653
 H   5.120370  -6.658331   0.483299
 H   3.146197  -5.146997   0.465237
 C   2.028459   5.953726   0.484451
 C   2.211802   7.327292   0.487042
 H   2.883331   5.288924   0.463939
 C   1.112706   8.194509   0.499581
 H   3.207184   7.754050   0.483327
 C  -0.178972   7.653910   0.543636
 C  -0.370492   6.278433   0.552885
 H  -1.046039   8.301360   0.612142
 H  -1.371455   5.867523   0.601058
 C  -9.080351  -3.620627   0.510158
 O  -9.988606  -2.964453   0.975114
 N  -9.257864  -4.870567  -0.066324
 H  -8.493348  -5.288138  -0.589642
 N  -10.477911  -5.461715  -0.086746
 C  -10.590639  -6.560828  -0.732735
 C  -11.857731  -7.289248  -0.808387
 H  -9.735000  -7.006055  -1.259468
 C  -11.914432  -8.489417  -1.530515
 C  -13.105135  -9.206527  -1.622019
 H  -11.021611  -8.862466  -2.022691
 C  -14.253197  -8.731286  -0.992194
 H  -13.135602  -10.133283  -2.183583
 C  -14.204930  -7.534926  -0.269963
 H  -15.181379  -9.287098  -1.061642
 C  -13.020498  -6.817176  -0.175867
 H  -15.097593  -7.163525   0.220645
 H  -12.975007  -5.889441   0.381213
 C   7.682405  -6.047552   0.512847
 O   7.571817  -7.161251   0.980953
 N   8.851266  -5.575008  -0.067361
 H   8.827145  -4.706031  -0.593674
 N   9.975653  -6.332522  -0.086841
 C   10.981329  -5.879418  -0.735972
 C   12.248309  -6.608129  -0.810721
 H   10.935008  -4.917623  -1.265672
 C   13.313210  -6.055451  -1.535732
 C   14.532021  -6.723796  -1.626421
 H   13.185797  -5.097701  -2.030719
 C   14.699764  -7.953079  -0.992940
 H   15.347606  -6.285497  -2.190225
 C   13.642394  -8.511130  -0.267830
 H   15.647084  -8.475686  -1.061766
 C   12.426190  -7.848515  -0.174525
 H   13.771168  -9.467900   0.225617
 H   11.602190  -8.274362   0.384731
 C   1.398676   9.668951   0.515112
 O   2.418575   10.129211   0.983761
 N   0.405764   10.445958  -0.065061
 H  -0.335068   9.991392  -0.591622
 N   0.501434   11.798296  -0.084722
 C  -0.391984   12.443874  -0.735154
 C  -0.392218   13.905496  -0.809851
 H  -1.201642   11.923963  -1.266131
 C  -1.400117   14.552743  -1.538060
 C  -1.428393   15.942455  -1.629087
 H  -2.165162   13.964569  -2.035341
 C  -0.448598   16.701042  -0.992592
 H  -2.213289   16.430685  -2.195419
 C   0.560148   16.063003  -0.264195
 H  -0.467915   17.782770  -1.061593
 C   0.592173   14.678395  -0.170679
 H   1.323632   16.651871   0.231593
 H   1.370549   14.176631   0.390978






