%nproc=15
%mem=70GB
%chk=ExtendedTrisPhenyl_Hydrazide_Hydrazone.chk
#P B3LYP/6-311++G(d,p) EmpiricalDispersion=GD3 opt SCF=YQC

Comment

0 1
 C    2.406280000000000    -1.304070000000000    -0.188810000000000
 C    1.203390000000000    -0.548970000000000    -0.106440000000000
 C    -0.027230000000000    -1.203660000000000    -0.047250000000000
 H    -0.068540000000000    -2.290310000000000    -0.082140000000000
 C    -1.205400000000000    -0.462500000000000    0.059980000000000
 C    -2.456090000000000    -1.145820000000000    0.109240000000000
 C    -1.153500000000000    0.928000000000000    0.109830000000000
 H    -2.069380000000000    1.508030000000000    0.195200000000000
 C    0.083700000000000    1.572160000000000    0.044410000000000
 C    0.148000000000000    2.991420000000000    0.079300000000000
 C    1.263040000000000    0.839400000000000    -0.064700000000000
 H    2.222880000000000    1.348280000000000    -0.114060000000000
 C    0.175490000000000    4.190400000000000    0.090480000000000
 C    0.127670000000000    5.611430000000000    0.085080000000000
 C    -3.456150000000000    -1.808590000000000    0.128860000000000
 C    -4.564140000000000    -2.707110000000000    0.127640000000000
 C    3.394430000000000    -1.983070000000000    -0.219750000000000
 C    4.502070000000000    -2.877030000000000    -0.213360000000000
 C    -1.117180000000000    6.242170000000000    0.077500000000000
 C    -1.189510000000000    7.632000000000000    0.064410000000000
 H    -2.030180000000000    5.651340000000000    0.079790000000000
 C    -0.016980000000000    8.387359999999999    0.058750000000000
 H    -2.159150000000000    8.121460000000001    0.057590000000000
 C    1.227970000000000    7.755110000000000    0.065810000000000
 C    1.302670000000000    6.362820000000000    0.078900000000000
 H    2.139400000000000    8.346740000000000    0.060060000000000
 H    2.273040000000000    5.872360000000000    0.082380000000000
 C    4.252440000000000    -4.250540000000001    -0.198640000000000
 C    5.314610000000000    -5.149730000000000    -0.169460000000000
 H    3.229840000000000    -4.620520000000000    -0.204530000000000
 C    6.625220000000000    -4.673790000000000    -0.155500000000000
 H    5.116950000000000    -6.217720000000000    -0.154560000000000
 C    6.874820000000000    -3.299950000000000    -0.171320000000000
 C    5.811540000000000    -2.397060000000000    -0.200240000000000
 H    7.897730000000000    -2.933230000000000    -0.157900000000000
 H    6.009820000000000    -1.328100000000000    -0.207300000000000
 C    -4.315700000000000    -4.082170000000000    0.120760000000000
 C    -5.377930000000000    -4.983700000000000    0.105750000000000
 H    -3.293760000000000    -4.454150000000001    0.124030000000000
 C    -6.689040000000000    -4.509870000000000    0.098020000000000
 H    -5.180530000000000    -6.052100000000000    0.098250000000000
 C    -6.938440000000000    -3.136120000000000    0.105990000000000
 C    -5.875190000000000    -2.231340000000000    0.120820000000000
 H    -7.961900000000000    -2.770510000000000    0.098710000000000
 H    -6.075870000000000    -1.163000000000000    0.123970000000000
 C    -0.105966815000000    9.882953603000001    0.060234275000000
 O    -1.209978744000000    10.413204766000000    -0.042053531000000
 N    1.089001387000000    10.580087736999999    0.182641055000000
 H    1.969223941000000    10.111894160000000    0.338883538000000
 N    1.075957222000000    11.942440249000001    0.132918981000000
 C    2.231379527000000    12.522824747000000    0.178192755000000
 C    2.357317295000000    13.992192910000000    0.121978063000000
 H    3.170594615000000    11.945458385000000    0.248939497000000
 C    3.632415264000000    14.564530273000001    0.100951965000000
 C    3.764484747000000    15.953119327000000    0.037861819000000
 H    4.524799475000000    13.945794270000000    0.127406609000000
 C    2.628238805000000    16.763122718000002    -0.001339534000000
 H    4.752504198000000    16.406375945000001    0.017080194000000
 C    1.356808554000000    16.189293115000002    0.021520213000000
 H    2.732373840000000    17.844332877999999    -0.051327721000000
 C    1.218816253000000    14.802659328000001    0.082010600000000
 H    0.471378106000000    16.819347076000000    -0.009749486000000
 H    0.224670316000000    14.359326653000000    0.096432181000000
 C    7.900373324000000    -5.460150892000000    -0.173983215000000
 O    8.967216224000000    -4.860724796999999    -0.288027120000000
 N    7.786051649000000    -6.839215379000000    -0.055492208000000
 H    6.899273282000000    -7.291331884000000    0.110710913000000
 N    8.907854121000000    -7.610989372000000    -0.123100803000000
 C    8.719681242000000    -8.890310471999999    -0.080379925000000
 C    9.849138628000000    -9.837295206000000    -0.155274097000000
 H    7.708533819000000    -9.327657843000001    0.002022547000000
 C    9.584751901000001    -11.209687350999999    -0.178218462000000
 C    10.644485177000000    -12.115257689000000    -0.258903178000000
 H    8.566064612000000    -11.584762487000001    -0.139766957000000
 C    11.959632922999999    -11.650409203000001    -0.313669672000000
 H    10.447565024999999    -13.184265063000000    -0.281298741000000
 C    12.220715607000001    -10.280169081000000    -0.288856271000000
 H    12.784024464000000    -12.356583044000001    -0.377351919000000
 C    11.165950697000000    -9.370863882000000    -0.210822546000000
 H    13.244607185000000    -9.917268624000000    -0.332240147000000
 H    11.374428151000000    -8.302517973000000    -0.194943104000000
 C    -7.881965999000000    -5.416302251000000    0.103425272000000
 O    -7.708098077000000    -6.628839513000000    0.003451448000000
 N    -9.126079777000001    -4.811373628000000    0.226594637000000
 H    -9.226841350000001    -3.819177422000000    0.380875152000000
 N    -10.250673812000000    -5.580658886000000    0.180385865000000
 C    -11.375912687000000    -4.943760850000000    0.226156457000000
 C    -12.666784205000001    -5.657170170000000    0.173610501000000
 H    -11.418958600000000    -3.841969968000000    0.294610124000000
 C    -13.852064605000001    -4.916514499000000    0.152957732000000
 C    -15.079253552999999    -5.579879641000000    0.093323427000000
 H    -13.834747912999999    -3.830695362000000    0.177053448000000
 C    -15.119742063000000    -6.974781646000000    0.057182675000000
 H    -16.005806518000000    -5.011428614000000    0.072856228000000
 C    -13.935260568000000    -7.711555783000000    0.079662092000000
 H    -16.076005105000000    -7.490225326000000    0.009884225000000
 C    -12.706403353000001    -7.054204985000000    0.136706772000000
 H    -13.965858389999999    -8.797908462000001    0.050774443000000
 H    -11.784694944999998    -7.633283318000000    0.150844737000000




