%nproc=15
%mem=70GB
%chk=BiPhenyl_Hydrazide_Hydrazone_freq.chk
#P B3LYP/6-311++G(d,p) EmpiricalDispersion=GD3 freq(noraman) SCF=YQC NoSymm

Restart from BiPhenyl_Hydrazide_Hydrazone.log

0 1
 C  -0.134382   3.560385  -0.677226
 C   1.020534   2.891409  -1.099413
 C   1.071266   1.501573  -1.101480
 C  -0.028052   0.740382  -0.680322
 C  -1.186485   1.419367  -0.270694
 C  -1.242320   2.805965  -0.277126
 C   0.028059  -0.740385  -0.680320
 C  -1.071264  -1.501578  -1.101461
 C  -1.020532  -2.891414  -1.099390
 C   0.134389  -3.560388  -0.677214
 C   1.242332  -2.805967  -0.277130
 C   1.186497  -1.419370  -0.270703
 H  -1.872491  -3.445903  -1.477266
 H  -2.140362   3.327593   0.030400
 H   2.140377  -3.327594   0.030388
 H   1.872488   3.445897  -1.477302
 H  -1.959959  -1.001202  -1.468091
 H  -2.043488   0.852978   0.075125
 H   1.959957   1.001196  -1.468118
 H   2.043504  -0.852979   0.075104
 C  -0.277900   5.055374  -0.672998
 O  -1.348173   5.608085  -0.817245
 N   0.913699   5.739010  -0.474259
 H   1.740672   5.220773  -0.191073
 N   0.952751   7.093955  -0.494093
 C   2.062860   7.657269  -0.196873
 C   2.219168   9.112489  -0.199867
 H   2.950171   7.067699   0.073097
 C   3.463098   9.667391   0.131521
 C   3.644670   11.048483   0.138211
 H   4.291931   9.013778   0.385226
 C   2.583773   11.890905  -0.186470
 H   4.611759   11.464748   0.396373
 C   1.339770   11.345291  -0.518077
 H   2.721938   12.966158  -0.182062
 C   1.154378   9.969599  -0.526236
 H   0.512841   11.999425  -0.770678
 H   0.193743   9.539243  -0.781352
 C   0.277905  -5.055378  -0.672981
 O   1.348175  -5.608090  -0.817246
 N  -0.913695  -5.739012  -0.474240
 H  -1.740665  -5.220774  -0.191049
 N  -0.952751  -7.093956  -0.494082
 C  -2.062860  -7.657269  -0.196863
 C  -2.219172  -9.112489  -0.199864
 H  -2.950168  -7.067698   0.073114
 C  -3.463103  -9.667389   0.131523
 C  -3.644679  -11.048480   0.138206
 H  -4.291933  -9.013775   0.385233
 C  -2.583785  -11.890904  -0.186482
 H  -4.611769  -11.464744   0.396368
 C  -1.339781  -11.345291  -0.518088
 H  -2.721953  -12.966156  -0.182080
 C  -1.154385  -9.969600  -0.526240
 H  -0.512855  -11.999426  -0.770695
 H  -0.193750  -9.539245  -0.781355






