%nproc=15
%mem=70GB
%chk=Pyrene_H_Cyanohydrine_Benzobisoxazole.chk
#P B3LYP/6-311++G(d,p) EmpiricalDispersion=GD3 opt SCF=YQC

Comment

0 1
 C    -0.000018454000000    3.538232864000000    0.000000000000000
 C    -1.208481454000000    2.825825864000000    0.000000000000000
 C    -1.234690454000000    1.426510864000000    0.000000000000000
 C    0.000005546000000    0.711866864000000    0.000000000000000
 C    1.234710546000000    1.426500864000000    0.000000000000000
 C    1.208465546000000    2.825809864000000    0.000000000000000
 H    -2.147901454000000    3.368902864000000    0.000000000000000
 H    2.147887546000000    3.368897864000000    0.000000000000000
 C    -0.000000454000000    -0.711870136000000    0.000000000000000
 C    -1.234703454000000    -1.426506136000000    0.000000000000000
 C    -1.208477454000000    -2.825813136000000    0.000000000000000
 C    0.000007546000000    -3.538224136000000    0.000000000000000
 C    1.208488546000000    -2.825823136000000    0.000000000000000
 C    1.234703546000000    -1.426514136000000    0.000000000000000
 H    -2.147899454000000    -3.368898136000000    0.000000000000000
 H    2.147910546000000    -3.368903136000000    0.000000000000000
 C    2.463158546000000    0.679246864000000    0.000000000000000
 C    2.463158546000000    -0.679259136000000    0.000000000000000
 C    -2.463145454000000    0.679256864000000    0.000000000000000
 C    -2.463154454000000    -0.679249136000000    0.000000000000000
 H    -0.000034519000000    4.628232863999999    0.000000000000000
 H    0.000010606000000    -4.628224136000000    0.000000000000000
 N    3.791910548000000    1.111212123000000    0.064989441000000
 O    3.721621986000000    -1.154235205000000    -0.022003196000000
 C    4.486677855000000    -0.013856180000000    0.030920069000000
 C    6.666016928000000    -1.250418890000000    -0.032420345000000
 C    8.064056926999999    -1.248931530000000    -0.038546109000000
 H    6.143388699999999    -2.203375726000000    -0.081511553000000
 C    8.761461552000000    -0.044213950000000    0.021256462000000
 H    8.607046538000001    -2.189248300000000    -0.091450314000000
 C    8.063942879000001    1.159533544000000    0.088568927000000
 H    9.848478228999999    -0.043354935000000    0.014871726000000
 C    6.666722788000000    1.157316373000000    0.094243010000000
 H    8.604442405000000    2.101470320000000    0.135334292000000
 H    6.134429110000000    2.106137546000000    0.145564429000000
 C    5.947763318000000    -0.046580330000000    0.032608119000000
 N    -3.791900931000000    -1.111215620000000    0.064989441000000
 O    -3.721614458000000    1.154231772000000    -0.022003196000000
 C    -4.486669276000000    0.013852042000000    0.030920069000000
 C    -6.666009490000000    1.250412741000000    -0.032420345000000
 C    -8.064049487000000    1.248924092000000    -0.038546109000000
 H    -6.143382140000000    2.203370059000000    -0.081511553000000
 C    -8.761453001000000    0.044205868000000    0.021256462000000
 H    -8.607039965000000    2.189240361000000    -0.091450314000000
 C    -8.063933218000001    -1.159540983000000    0.088568927000000
 H    -9.848469677000001    0.043345851000000    0.014871726000000
 C    -6.666713128000000    -1.157322522000000    0.094243010000000
 H    -8.604431875000000    -2.101478257000000    0.135334292000000
 H    -6.134418575000000    -2.106143204000000    0.145564429000000
 C    -5.947754769000000    0.046574843000000    0.032608119000000




