%nproc=15
%mem=70GB
%chk=BiPhenyl_BoronicAcid_Borosilicate.chk
#P B3LYP/6-311++G(d,p) EmpiricalDispersion=GD3 opt SCF=YQC

Comment

0 1
 C    -0.000000000000000    3.577958000000000    -0.000000182000000
 C    1.133739000000000    2.852350000000000    -0.402520182000000
 C    1.135339000000000    1.463226000000000    -0.401762182000000
 C    -0.000000000000000    0.741600000000000    -0.000000182000000
 C    -1.135339000000000    1.463225000000000    0.401761818000000
 C    -1.133738000000000    2.852349000000000    0.402519818000000
 C    -0.000000000000000    -0.741600000000000    -0.000000182000000
 C    -1.135339000000000    -1.463226000000000    -0.401762182000000
 C    -1.133739000000000    -2.852350000000000    -0.402520182000000
 C    -0.000000000000000    -3.577958000000000    -0.000000182000000
 C    1.133738000000000    -2.852349000000000    0.402519818000000
 C    1.135339000000000    -1.463225000000000    0.401761818000000
 H    -2.020512000000000    -3.385811000000000    -0.727052182000000
 H    -2.020512000000000    3.385812000000000    0.727052818000000
 H    2.020512000000000    -3.385812000000000    0.727052818000000
 H    2.020512000000000    3.385811000000000    -0.727052182000000
 H    -2.015826000000000    -0.929067000000000    -0.740072182000000
 H    -2.015827000000000    0.929068000000000    0.740072818000000
 H    2.015826000000000    0.929067000000000    -0.740072182000000
 H    2.015827000000000    -0.929068000000000    0.740072818000000
 B    0.000687023000000    5.153856844000000    0.036850351000000
 O    -1.097447123000000    5.829837174000000    0.403810457000000
 O    1.089739176000000    5.845547287000000    -0.329874837000000
Si    -1.717733285000000    7.302575522000000    0.442402971000000
Si    1.595872622000000    7.328981434000000    -0.642398026000000
 O    -0.791682142000000    8.181915364000000    1.403522754000000
 O    -1.583079096000000    7.917620351000000    -1.027382188000000
 H    -3.116109557000000    7.287093211000000    0.894472835000000
 O    0.612422931000000    7.946479385000000    -1.740940221000000
 O    1.405458437000000    8.188957329999999    0.691804552000000
 H    2.992255005000000    7.336377094000000    -1.100948098000000
 B    0.476796243000000    8.578256482000000    1.576436957000000
 H    0.812628797000000    9.019570944000000    2.618465677000000
 B    -0.681962801000000    8.199755253999999    -1.978731151000000
 H    -1.044786331000000    8.366657623000000    -3.089496452000000
 B    0.000687021000000    -5.153856841000000    -0.036850875000000
 O    -1.097447146000000    -5.829837133000000    -0.403810987000000
 O    1.089739195000000    -5.845547320000000    0.329874180000000
Si    -1.717733311000000    -7.302575478000000    -0.442403615000000
Si    1.595872659000000    -7.328981499000000    0.642397189000000
 O    -0.791682222000000    -8.181915221000001    -1.403523541000000
 O    -1.583079038000000    -7.917620455000000    1.027381474000000
 H    -3.116109608000000    -7.287093120000000    -0.894473397000000
 O    0.612423031000000    -7.946479561000000    1.740939378000000
 O    1.405458397000000    -8.188957260000000    -0.691805465000000
 H    2.992255068000000    -7.336377206000000    1.100947180000000
 B    0.476796153000000    -8.578256322000000    -1.576437856000000
 H    0.812628647000000    -9.019570678000001    -2.618466641000000
 B    -0.681962688000000    -8.199755455000000    1.978730357000000
 H    -1.044786154000000    -8.366657935999999    3.089495661000000




