%nproc=15
%mem=70GB
%chk=Triazine-TrisPhenyl_PrimaryAmine_Imide.chk
#P B3LYP/6-311++G(d,p) EmpiricalDispersion=GD3 opt SCF=YQC NoSymm

Comment

0 1
 C    4.027462051000000    -3.893913718000000    0.310066179000000
 C    2.672148051000000    -4.262318718000000    0.319743179000000
 C    1.678672051000000    -3.300991718000001    0.229140179000000
 C    2.003629051000000    -1.937063718000000    0.160580179000000
 C    3.355470051000000    -1.566913718000000    0.187692179000000
 C    4.354395051000000    -2.527048718000000    0.261396179000000
 C    0.941359051000000    -0.909939718000000    0.077892179000000
 N    1.312939051000000    0.376982282000000    0.037767179000000
 C    0.318010051000000    1.271410282000000    -0.038992821000000
 N    -0.981642949000000    0.947974282000000    -0.075637821000000
 C    -1.260558949000000    -0.362144718000000    -0.031325821000000
 N    -0.332144949000000    -1.325265718000000    0.045418179000000
 C    0.676958051000000    2.706621282000000    -0.083768821000000
 C    -0.317350949000000    3.691753282000000    -0.190296821000000
 C    0.018704051000000    5.034651282000000    -0.245812821000000
 C    1.360665051000000    5.440586282000000    -0.161808821000000
 C    2.359252051000000    4.454275282000000    -0.075031821000000
 C    2.018771051000000    3.109724282000000    -0.036659821000000
 C    -2.682392949000000    -0.770638718000000    -0.066681821000000
 C    -3.700649949000000    0.190456282000000    -0.135975821000000
 C    -5.035099948999999    -0.188277718000000    -0.165449821000000
 C    -5.391426949000000    -1.548090718000000    -0.125807821000000
 C    -4.369830949000000    -2.511469718000000    -0.093439821000000
 C    -3.039347949000000    -2.128166718000000    -0.047251821000000
 H    0.636350051000000    -3.590416718000000    0.220005179000000
 H    2.423007051000000    -5.314639718000000    0.386235179000000
 H    5.392662051000000    -2.220384718000000    0.316972179000000
 H    3.609547051000000    -0.515584718000000    0.158735179000000
 H    -1.353435949000000    3.384405282000000    -0.238761821000000
 H    -0.746394949000000    5.795773282000000    -0.341783821000000
 H    3.403496051000000    4.745260282000000    -0.073396821000000
 H    2.789534051000000    2.352613282000000    0.021499179000000
 H    -3.429036949000000    1.237058282000000    -0.175087821000000
 H    -5.807122949000000    0.567416282000000    -0.254919821000000
 H    -4.647001949000000    -3.558870718000000    -0.092107821000000
 H    -2.256291949000000    -2.873402718000000    -0.005591821000000
 C    6.169545475000000    -6.885888124000000    0.326014474000000
 C    6.529794025000000    -8.214840041000000    0.197424661000000
 H    5.799734753000000    -8.969580786000000    -0.077913210000000
 C    7.868010081000000    -8.543635173000000    0.434334210000000
 H    8.194108599000000    -9.578355555000000    0.343337230000000
 C    8.801457129999999    -7.549626254000000    0.789668803000000
 H    9.838610516999999    -7.827090101000000    0.970181792000000
 C    8.409793090999999    -6.212942261000000    0.911797249000000
 H    9.117645442000001    -5.436411402000000    1.184544970000000
 C    7.081002309000000    -5.915466236000000    0.670451664000000
 C    6.376315431000000    -4.638953085000000    0.713557712000000
 C    4.875936640000000    -6.236500247000000    0.144817458000000
 N    5.055648007000000    -4.887156166000000    0.387598720000000
 O    3.898915908000000    -6.889717471000000    -0.176733400000000
 O    6.970276536000001    -3.617641952000000    1.011404242000000
 C    2.890893342000000    8.778808003000002    -0.397103757000000
 C    3.871297215000000    9.738996457000001    -0.568200034000000
 H    4.902817970000000    9.459410116999999    -0.758535232000000
 C    3.479515412000000    11.078800320999999    -0.487656823000000
 H    4.219733029000000    11.866580114000000    -0.617070275000000
 C    2.135300368000000    11.422137300999999    -0.240988156000000
 H    1.851453520000000    12.471504262000000    -0.181673560000000
 C    1.164132929000000    10.430398858000000    -0.072676422000000
 H    0.124882126000000    10.679737697000000    0.117676821000000
 C    1.578635222000000    9.113887259000000    -0.158755906000000
 C    0.819240387000000    7.874769610000000    -0.032920752000000
 C    2.979580118000000    7.323060455000000    -0.427012346000000
 N    1.707398536000000    6.828981651000000    -0.204732058000000
 O    4.048143635000000    6.775590313000000    -0.634631369000000
 O    -0.377106173000000    7.906473824000001    0.195833552000000
 C    -9.042530761000000    -1.911813325000000    -0.404794209000000
 C    -10.359387678999999    -1.560827386000000    -0.639579824000000
 H    -10.626274471000000    -0.551220037000000    -0.936051605000000
 C    -11.327855560999998    -2.556854832000000    -0.481295673000000
 H    -12.376569772000000    -2.323116660000000    -0.656885921000000
 C    -10.961824341000000    -3.862204330000000    -0.096947352000000
 H    -11.731721417999999    -4.622853613000000    0.021075660000000
 C    -9.622148093000000    -4.189813417000000    0.133226517000000
 H    -9.325187134000000    -5.191043202000000    0.429536411000000
 C    -8.685066339000000    -3.186323223000000    -0.032030362000000
 C    -7.235379651000000    -3.212530143000000    0.128123487000000
 C    -7.823762605000000    -1.114463720000000    -0.487247716000000
 N    -6.766943903000000    -1.943725708000000    -0.159486898000000
 O    -7.876436148000000    0.058580385000000    -0.812594041000000
 O    -6.672344070000000    -4.237212097000000    0.471047105000000




