%nproc=15
%mem=70GB
%chk=TPG_AmineBorane_Borazine_freq.chk
#P B3LYP/6-311++G(d,p) EmpiricalDispersion=GD3 freq(noraman) SCF=YQC

Restart from TPG_AmineBorane_Borazine.log

0 1
 C  -1.305401   0.521348  -0.000301
 C  -0.198793   1.376057  -0.000491
 O  -0.356559   2.729184  -0.000837
 C   1.102819   0.870623  -0.000359
 C   1.289697  -0.515070  -0.000427
 O   2.540420  -1.055059  -0.000863
 C   0.201261  -1.389672  -0.000205
 C  -1.092149  -0.858544  -0.000029
 O  -2.185136  -1.671786   0.000263
 H   3.176053  -0.326674  -0.002496
 H  -1.871834  -2.586338   0.000640
 H  -1.305215   2.915288  -0.001832
 N  -2.632955   1.067421  -0.000094
 B  -3.316327   1.258196   1.256770
 B  -3.320558   1.250309  -1.255799
 H  -2.754596   1.051780   2.284500
 N  -4.666452   1.721782   1.218686
 H  -2.762513   1.037447  -2.284206
 N  -4.670600   1.714062  -1.215947
 B  -5.381006   1.955426   0.001818
 H  -5.142802   1.870707   2.095579
 H  -5.149944   1.857484  -2.092126
 H  -6.511035   2.332525   0.002542
 N   2.239938   1.746717  -0.000470
 B   2.749642   2.240941   1.256078
 B   2.741641   2.250374  -1.256540
 H   2.290712   1.857805   2.284163
 N   3.828364   3.175877   1.217165
 H   2.276323   1.874734  -2.284512
 N   3.820460   3.185203  -1.217477
 B   4.387737   3.677211  -0.000096
 H   4.197566   3.512417   2.093786
 H   4.184028   3.528383  -2.093878
 H   5.281499   4.464838   0.000027
 N   0.391752  -2.812487  -0.000211
 B   0.571947  -3.499679   1.256133
 B   0.573215  -3.499561  -1.256436
 H   0.473285  -2.910028   2.284207
 N   0.844921  -4.900819   1.217269
 H   0.475772  -2.910006  -2.284689
 N   0.846207  -4.900710  -1.217353
 B   0.995470  -5.636699  -0.000001
 H   0.956505  -5.387776   2.093882
 H   0.958717  -5.387572  -2.093900
 H   1.232838  -6.804098   0.000072






