%nproc=15
%mem=70GB
%chk=F_AmineBorane_Borazine.chk
#P B3LYP/6-311++G(d,p) EmpiricalDispersion=GD3 opt SCF=YQC NoSymm

Comment

0 1
 F    1.342850000000000    -2.363239000000000    -0.181050000000000
 C    0.684160000000000    -1.200169000000000    -0.092040000000000
 C    -0.709070000000000    -1.188689000000000    -0.034700000000000
 F    -1.391880000000000    -2.340709000000000    -0.068500000000000
 C    -1.404610000000000    0.011571000000000    0.057810000000000
 C    -0.684160000000000    1.200171000000000    0.092040000000000
 F    -1.342850000000000    2.363241000000000    0.181050000000000
 C    0.709070000000000    1.188691000000000    0.034700000000000
 F    1.391880000000000    2.340711000000000    0.068500000000000
 C    1.404610000000000    -0.011579000000000    -0.057810000000000
 N    -2.860637948000000    0.016842220000000    0.134162522000000
 B    -3.653802278000000    -1.189211226000000    0.662836309000000
 B    -3.696057362000000    1.228592678000000    -0.309585800000000
 H    -3.129558567000000    -2.167898800000000    1.044230138000000
 N    -5.177353872000000    -1.200192833000000    0.746652003000000
 H    -3.207474461000000    2.204016139000001    -0.743121810000000
 N    -5.220044975000000    1.249570603000000    -0.236111009000000
 B    -5.946304273000001    0.026994573000000    0.293503349000000
 H    -5.683555400000000    -2.036957542000000    1.113638877000000
 H    -5.755863300000000    2.089634730000000    -0.549601311000000
 H    -7.126072238000000    0.030690365000000    0.353948704000000
 N    2.860637948000000    -0.016842220000000    -0.134162522000000
 B    3.653802278000000    1.189211226000000    -0.662836309000000
 B    3.696057362000000    -1.228592678000000    0.309585800000000
 H    3.129558567000000    2.167898800000000    -1.044230138000000
 N    5.177353872000000    1.200192833000000    -0.746652003000000
 H    3.207474461000000    -2.204016139000001    0.743121810000000
 N    5.220044975000000    -1.249570603000000    0.236111009000000
 B    5.946304273000001    -0.026994573000000    -0.293503349000000
 H    5.683555400000000    2.036957542000000    -1.113638877000000
 H    5.755863300000000    -2.089634730000000    0.549601311000000
 H    7.126072238000000    -0.030690365000000    -0.353948704000000




