%nproc=15
%mem=70GB
%chk=TetraPhenylMethane_Nitrile_Triazine_freq.chk
#P B3LYP/6-311++G(d,p) EmpiricalDispersion=GD3 freq(noraman) SCF=YQC

Restart from TetraPhenylMethane_Nitrile_Triazine.log

0 1
 C  -0.000008  -0.000009  -0.000009
 C   2.901311  -2.333296   2.290748
 C  -2.901347  -2.291037  -2.333024
 C   2.901307   2.333268  -2.290780
 C  -2.901279   2.291058   2.333050
 C   2.102670  -2.961502   1.330317
 C  -2.103035  -1.330366  -2.961281
 C   2.102665   2.961478  -1.330352
 C  -2.102971   1.330376   2.961295
 C   1.151920  -2.239079   0.614864
 C  -1.152275  -0.614807  -2.238974
 C   1.151916   2.239056  -0.614895
 C  -1.152233   0.614803   2.238972
 C   0.966640  -0.872334   0.838411
 C  -0.966669  -0.838471  -0.872289
 C   0.966638   0.872310  -0.838437
 C  -0.966646   0.838465   0.872284
 C   1.792320  -0.243955   1.784476
 C  -1.792021  -1.784786  -0.243857
 C   1.792319   0.243928  -1.784498
 C  -1.791991   1.784795   0.243866
 C   2.735613  -0.956400   2.505992
 C  -2.735312  -2.506415  -0.956191
 C   2.735612   0.956371  -2.506018
 C  -2.735261   2.506437   0.956215
 H   2.233053  -4.019817   1.145455
 H  -2.233682  -1.145401  -4.019546
 H   2.233046   4.019794  -1.145495
 H  -2.233603   1.145412   4.019561
 H   0.558642  -2.755549  -0.127110
 H  -0.559279   0.127358  -2.755485
 H   0.558636   2.755528   0.127076
 H  -0.559237  -0.127370   2.755473
 H   1.698153   0.822703   1.948348
 H  -1.697579  -1.948780   0.822758
 H   1.698156  -0.822731  -1.948364
 H  -1.697562   1.948790  -0.822750
 H   3.359199  -0.456777   3.235666
 H  -3.358635  -3.236284  -0.456526
 H   3.359198   0.456746  -3.235689
 H  -3.358579   3.236317   0.456561
 C   3.906844  -3.099430   3.054243
 N   4.647717  -2.445698   3.967446
 C   5.534658  -3.189284   4.620839
 N   4.034353  -4.414897   2.801301
 C   4.955399  -5.047438   3.520532
 N   5.743177  -4.497421   4.448932
 H   5.079074  -6.111130   3.336353
 H   6.146719  -2.685819   5.364182
 C  -3.906885  -3.054645  -3.099040
 N  -4.647432  -3.968080  -2.445262
 C  -5.534396  -4.621566  -3.188740
 N  -4.034723  -2.801571  -4.414448
 C  -4.955753  -3.520916  -5.046883
 N  -5.743224  -4.449544  -4.496813
 H  -5.079689  -3.336634  -6.110527
 H  -6.146197  -5.365097  -2.685237
 C   3.906839   3.099401  -3.054279
 N   4.647712   2.445666  -3.967479
 C   5.534653   3.189249  -4.620875
 N   4.034346   4.414868  -2.801343
 C   4.955390   5.047407  -3.520577
 N   5.743169   4.497388  -4.448974
 H   5.079063   6.111101  -3.336403
 H   6.146714   2.685782  -5.364216
 C  -3.906793   3.054681   3.099082
 N  -4.647336   3.968128   2.445317
 C  -5.534278   4.621627   3.188810
 N  -4.034614   2.801607   4.414493
 C  -4.955623   3.520966   5.046942
 N  -5.743089   4.449606   4.496886
 H  -5.079546   3.336684   6.110588
 H  -6.146076   5.365167   2.685317






