%nproc=18
%mem=70GB
%chk=BDBA_boroxine.chk
#P B3LYP/6-311++G(d,p) EmpiricalDispersion=GD3 opt SCF=YQC

Restart from /home/juul/PhD/Research/HPC/PhD/Data/SBUs/BDBA/_boroxine_larger/BDBA_boroxine.log

0 1
 C  -0.695246  -1.206081   0.003769
 C   0.695103  -1.206101   0.001207
 C   1.416625  -0.000078  -0.007756
 C   0.695109   1.205965  -0.014292
 C  -0.695239   1.205984  -0.011874
 C  -1.416762  -0.000038  -0.002807
 B   2.970725  -0.000093  -0.010232
 O   3.676051  -1.188954  -0.003811
 B   5.059875  -1.210774  -0.004722
 C   5.842083  -2.561609   0.036080
 B  -2.970868  -0.000013  -0.000194
 O  -3.676195  -1.188856   0.008234
 B  -5.060036  -1.210656   0.007248
 O  -5.730206   0.000017   0.004213
 B  -5.060043   1.210660  -0.000953
 C  -5.841542   2.562205   0.028362
 O   3.676049   1.188731  -0.019694
 B   5.059903   1.210518  -0.020993
 O   5.730040  -0.000146  -0.017312
 C   5.841847   2.561938   0.001570
 O  -3.676190   1.188826  -0.006306
 C  -5.841880  -2.562057  -0.019632
 H   1.236527   2.145564  -0.021173
 H  -1.236651   2.145598  -0.016935
 H  -1.236663  -2.145680   0.010735
 H   1.236515  -2.145714   0.006373
 H   5.278175   3.373799  -0.463425
 H   6.020579   2.857448   1.043805
 H   6.822070   2.478415  -0.473061
 H   6.820092  -2.485447  -0.444390
 H   6.026102  -2.839981   1.082104
 H   5.276618  -3.381038  -0.413131
 H  -6.823632  -2.479281   0.451943
 H  -6.017064  -2.856232  -1.062843
 H  -5.279597  -3.374476   0.446096
 H  -6.826677   2.478639  -0.435908
 H  -5.282367   3.373325  -0.443394
 H  -6.008788   2.859130   1.072094






