%nproc=15
%mem=70GB
%chk=TetraPhenylMethane_PrimaryAmine_Imide_freq.chk
#P B3LYP/6-311++G(d,p) EmpiricalDispersion=GD3 freq(noraman) SCF=YQC NoSymm

Restart from TetraPhenylMethane_PrimaryAmine_Imide-1.log

0 1
 C   0.000061   0.000001   0.016255
 C  -0.405248  -3.304197  -2.803551
 C  -3.323546   0.387245   2.817811
 C   0.405239   3.304213  -2.803562
 C   3.323638  -0.387271   2.817849
 C  -1.437404  -3.043805  -1.908460
 C  -3.061535   1.421920   1.925618
 C   1.437387   3.043895  -1.908442
 C   3.061594  -1.421966   1.925689
 C  -1.316681  -2.000937  -0.990119
 C  -2.017755   1.304914   1.008061
 C   1.316714   2.001020  -0.990102
 C   2.017831  -1.304948   1.008115
 C  -0.168013  -1.211489  -0.936432
 C  -1.213691   0.165947   0.966285
 C   0.168101   1.211488  -0.936446
 C   1.213821  -0.165944   0.966277
 C   0.850359  -1.478983  -1.864539
 C  -1.475197  -0.849572   1.898876
 C  -0.850262   1.478909  -1.864583
 C   1.475349   0.849587   1.898849
 C   0.744471  -2.510297  -2.784447
 C  -2.520832  -0.756808   2.804331
 C  -0.744423   2.510230  -2.784490
 C   2.520967   0.756812   2.804321
 H  -2.341610  -3.636267  -1.937346
 H  -3.674306   2.312788   1.933800
 H   2.341553   3.636421  -1.937303
 H   3.674324  -2.312862   1.933914
 H  -2.142700  -1.810925  -0.319429
 H  -1.836952   2.129182   0.332688
 H   2.142733   1.811067  -0.319397
 H   1.837000  -2.129237   0.332774
 H   1.737730  -0.857677  -1.876430
 H  -0.843703  -1.729644   1.918414
 H  -1.737591   0.857542  -1.876496
 H   0.843881   1.729678   1.918360
 H   1.548103  -2.703506  -3.481737
 H  -2.700058  -1.553329   3.513087
 H  -1.548050   2.703379  -3.481802
 H   2.700210   1.553346   3.513058
 C  -1.348074  -5.815562  -5.353970
 C  -2.121110  -6.487521  -6.286349
 H  -3.135008  -6.171166  -6.498965
 C  -1.538563  -7.582612  -6.933459
 H  -2.110385  -8.135559  -7.669749
 C  -0.227397  -7.977949  -6.645684
 H   0.195897  -8.830764  -7.163740
 C   0.543560  -7.290269  -5.702267
 H   1.559785  -7.584940  -5.470472
 C  -0.043849  -6.207146  -5.069605
 C   0.511553  -5.291897  -4.034177
 C  -1.681887  -4.630355  -4.515731
 N  -0.521683  -4.366484  -3.746821
 O  -2.713363  -4.005818  -4.477040
 O   1.605751  -5.309533  -3.526084
 C  -6.480450   0.918983   4.675546
 C  -7.797385   1.275298   4.914908
 H  -8.418350   1.672799   4.121392
 C  -8.282825   1.101456   6.215422
 H  -9.307906   1.369127   6.444395
 C  -7.465873   0.587247   7.228642
 H  -7.871028   0.464708   8.226492
 C  -6.137633   0.229567   6.973547
 H  -5.494359  -0.170042   7.748007
 C  -5.669279   0.405497   5.681947
 C  -4.323329   0.123477   5.109981
 C  -5.689814   0.984715   3.415177
 N  -4.401198   0.495465   3.744621
 O  -6.044761   1.367690   2.327616
 O  -3.352700  -0.327708   5.666098
 C   1.347960   5.815659  -5.353940
 C   2.120980   6.487687  -6.286282
 H   3.134908   6.171408  -6.498869
 C   1.538377   7.582746  -6.933396
 H   2.110185   8.135745  -7.669659
 C   0.227173   7.977986  -6.645659
 H  -0.196164   8.830778  -7.163717
 C  -0.543767   7.290237  -5.702279
 H  -1.560021   7.584832  -5.470514
 C   0.043698   6.207146  -5.069614
 C  -0.511675   5.291842  -4.034219
 C   1.681830   4.630464  -4.515707
 N   0.521623   4.366507  -3.746829
 O   2.713355   4.006011  -4.476977
 O  -1.605884   5.309404  -3.526149
 C   6.480495  -0.919071   4.675646
 C   7.797413  -1.275431   4.915040
 H   8.418371  -1.672993   4.121548
 C   8.282844  -1.101554   6.215552
 H   9.307911  -1.369258   6.444549
 C   7.465902  -0.587268   7.228740
 H   7.871050  -0.464703   8.226590
 C   6.137680  -0.229543   6.973614
 H   5.494414   0.170126   7.748050
 C   5.669334  -0.405509   5.682016
 C   4.323403  -0.123456   5.110022
 C   5.689872  -0.984824   3.415270
 N   4.401273  -0.495504   3.744678
 O   6.044818  -1.367857   2.327730
 O   3.352787   0.327797   5.666107






