%nproc=15
%mem=70GB
%chk=2_Phenyl_Hydrazide_Hydrazone.chk
#P B3LYP/6-311++G(d,p) EmpiricalDispersion=GD3 opt SCF=YQC NoSymm

Comment

0 1
 C    -0.000013000000000    -1.415145000000000    0.000000000000000
 C    0.000013000000000    1.415145000000000    0.000000000000000
 C    -1.206999000000000    -0.694755000000000    0.000000000000000
 C    1.206999000000000    0.694755000000000    0.000000000000000
 C    -1.206984000000000    0.694770000000000    0.000000000000000
 C    1.206984000000000    -0.694770000000000    0.000000000000000
 H    2.148535000000000    -1.233078000000000    0.000000000000000
 H    -2.148535000000000    1.233078000000000    0.000000000000000
 H    2.148565000000000    1.233036000000000    0.000000000000000
 H    -2.148565000000000    -1.233036000000000    0.000000000000000
 C    0.078459723000000    -2.911050020000000    -0.028831998000000
 O    1.093981359000000    -3.444999848000000    -0.469382583000000
 N    -1.022699980000000    -3.604202092000000    0.456879786000000
 H    -1.809008455000000    -3.133287791000000    0.879215421000000
 N    -1.031717795000000    -4.966435135999999    0.403152547000000
 C    -2.118686404000000    -5.542747617000000    0.803477101000000
 C    -2.262318065000000    -7.011469688000001    0.786487865000000
 H    -2.987110263000000    -4.962186508000000    1.163019591000000
 C    -3.483585782000000    -7.579097623000000    1.160908318000000
 C    -3.634823156000000    -8.966998228000000    1.139427095000000
 H    -4.321040717000000    -6.957202688000000    1.463892794000000
 C    -2.570325686000000    -9.781006720000001    0.748361386000000
 H    -4.582567049000000    -9.416591911999999    1.425264297000000
 C    -1.351969653000000    -9.211878810000000    0.376824223000000
 H    -2.689589310000000    -10.861673463000001    0.731217439000000
 C    -1.195916298000000    -7.825947071000000    0.393993661000000
 H    -0.522668616000000    -9.845051596999999    0.071398493000000
 H    -0.244363965000000    -7.386280118000000    0.100192516000000
 C    -0.078459723000000    2.911050020000000    0.028831998000000
 O    -1.093981359000000    3.444999848000000    0.469382583000000
 N    1.022699980000000    3.604202092000000    -0.456879786000000
 H    1.809008455000000    3.133287791000000    -0.879215421000000
 N    1.031717795000000    4.966435135999999    -0.403152547000000
 C    2.118686404000000    5.542747617000000    -0.803477101000000
 C    2.262318065000000    7.011469688000001    -0.786487865000000
 H    2.987110263000000    4.962186508000000    -1.163019591000000
 C    3.483585782000000    7.579097623000000    -1.160908318000000
 C    3.634823156000000    8.966998228000000    -1.139427095000000
 H    4.321040717000000    6.957202688000000    -1.463892794000000
 C    2.570325686000000    9.781006720000001    -0.748361386000000
 H    4.582567049000000    9.416591911999999    -1.425264297000000
 C    1.351969653000000    9.211878810000000    -0.376824223000000
 H    2.689589310000000    10.861673463000001    -0.731217439000000
 C    1.195916298000000    7.825947071000000    -0.393993661000000
 H    0.522668616000000    9.845051596999999    -0.071398493000000
 H    0.244363965000000    7.386280118000000    -0.100192516000000




