%nproc=15
%mem=70GB
%chk=2_Phenyl_Hydrazide_Hydrazone_freq.chk
#P B3LYP/6-311++G(d,p) EmpiricalDispersion=GD3 freq(noraman) SCF=YQC NoSymm

Restart from 2_Phenyl_Hydrazide_Hydrazone.log

0 1
 C   0.046301  -1.401942  -0.029130
 C  -0.046301   1.401942   0.029130
 C  -1.156096  -0.725586  -0.272934
 C   1.156096   0.725586   0.272934
 C  -1.202465   0.662709  -0.236643
 C   1.202465  -0.662709   0.236643
 H   2.128909  -1.193836   0.416665
 H  -2.128909   1.193836  -0.416665
 H   2.055647   1.274915   0.527355
 H  -2.055647  -1.274915  -0.527355
 C   0.181330  -2.899238  -0.074117
 O   1.212384  -3.447816  -0.401941
 N  -0.964064  -3.581461   0.304898
 H  -1.732526  -3.064833   0.723906
 N  -1.010437  -4.936983   0.275909
 C  -2.060784  -5.500204   0.742368
 C  -2.222436  -6.954680   0.749600
 H  -2.889941  -4.911032   1.158174
 C  -3.399393  -7.508752   1.271953
 C  -3.584226  -8.889211   1.294060
 H  -4.173088  -6.855195   1.662746
 C  -2.593649  -9.731397   0.794013
 H  -4.498921  -9.305123   1.700822
 C  -1.416748  -9.186521   0.271287
 H  -2.734523  -10.806179   0.810054
 C  -1.228353  -7.811461   0.247016
 H  -0.644714  -9.840704  -0.117896
 H  -0.319318  -7.381622  -0.155432
 C  -0.181330   2.899238   0.074117
 O  -1.212384   3.447816   0.401941
 N   0.964064   3.581461  -0.304898
 H   1.732526   3.064833  -0.723906
 N   1.010437   4.936983  -0.275909
 C   2.060784   5.500204  -0.742368
 C   2.222436   6.954680  -0.749600
 H   2.889941   4.911032  -1.158174
 C   3.399393   7.508752  -1.271953
 C   3.584226   8.889211  -1.294060
 H   4.173088   6.855195  -1.662746
 C   2.593649   9.731397  -0.794013
 H   4.498921   9.305123  -1.700822
 C   1.416748   9.186521  -0.271287
 H   2.734523   10.806179  -0.810054
 C   1.228353   7.811461  -0.247016
 H   0.644714   9.840704   0.117896
 H   0.319318   7.381622   0.155432






