%nproc=15
%mem=70GB
%chk=N-TrisPhenyl_BoronicAcid_BoronateEster.chk
#P B3LYP/6-311++G(d,p) EmpiricalDispersion=GD3 opt SCF=YQC

Comment

0 1
 N    0.000000000000000    0.000000000000000    0.000000000000000
 C    1.486664194000000    0.115830323000000    -0.171934194000000
 C    -0.789065806000000    1.237760323000000    0.199745806000000
 C    -0.613895806000000    -1.236089677000000    -0.038794194000000
 C    -0.462675806000000    2.500160323000000    -0.322134194000000
 C    2.176224194000000    -0.918259677000000    -0.846584194000000
 C    -1.765025806000000    -1.441179677000000    -0.822204194000000
 C    -2.007925806000000    1.140170323000000    0.910585806000000
 C    -1.297715806000000    3.610210323000000    -0.126194194000000
 H    0.438864194000000    2.642570323000000    -0.911754194000000
 C    2.273194194000000    1.157440323000000    0.348705806000000
 C    3.570374194000000    -0.927389677000000    -0.965384194000000
 H    1.632104194000000    -1.749019677000000    -1.289124194000000
 C    -0.125815806000000    -2.315259677000000    0.720105806000000
 C    -2.414125806000000    -2.677449677000000    -0.833324194000000
 H    -2.163745806000000    -0.629609677000000    -1.426834194000000
 C    -2.865415806000000    2.233870323000000    1.065575806000000
 H    -2.315445806000000    0.194440323000000    1.350765806000000
 C    -2.504725806000000    3.472930323000000    0.555025806000000
 H    -1.010125806000000    4.580640323000000    -0.521804194000000
 C    3.666684194000001    1.177220323000000    0.186235806000000
 H    1.821684194000000    1.969990323000000    0.911145806000000
 C    4.315594194000000    0.127230323000000    -0.457594194000000
 H    4.064904194000000    -1.761929677000000    -1.456734194000000
 C    -0.759375806000000    -3.559559677000000    0.685245806000000
 H    0.753504194000000    -2.187099677000000    1.347095806000000
 C    -1.906875806000000    -3.737209677000000    -0.084874194000000
 H    -3.314085806000000    -2.810259677000000    -1.427784194000000
 H    -3.812175806000000    2.108150323000000    1.585245806000000
 H    4.245704194000000    2.009030323000000    0.578395806000000
 H    -0.358405806000000    -4.386819677000000    1.264815806000000
 B    -3.397226544000000    4.710438446000000    0.752793796000000
 O    -3.102657745000000    5.983783198000000    0.271107004000000
 O    -4.609976689000000    4.710224468000000    1.437935424000000
 C    -4.153745186000000    6.781926821000000    0.667249186000000
 C    -5.070194531000000    6.007606745000000    1.376679643000000
 C    -4.351195517000000    8.130970951000000    0.444763113000000
 C    -6.231367038000000    6.542389364000000    1.900218286000000
 C    -5.524950293000000    8.686344025000000    0.970311294000000
 C    -6.444216401000000    7.909644029000000    1.681922228000000
 H    -3.631913779000000    8.721668859999999    -0.107821057000000
 H    -6.935384661000000    5.930528146000000    2.449419769000000
 H    -5.722778195000000    9.741091866000000    0.820907022000000
 H    -7.341530652000000    8.373385381000000    2.073996016000000
 B    5.844897366000000    0.172310372000000    -0.619753677000000
 O    6.604065050000000    -0.815097887000000    -1.243363457000000
 O    6.659047849000000    1.206087196000000    -0.162975312000000
 C    7.909656442000000    -0.380778335000000    -1.168903257000000
 C    7.943088329000000    0.848099608000000    -0.512028942000000
 C    9.056084962000000    -0.992602994000000    -1.637709173000000
 C    9.124673239000000    1.528541599000000    -0.290077265000000
 C    10.261592714000001    -0.313343768000000    -1.419309582000000
 C    10.295127356000000    0.919311207000000    -0.760416324000000
 H    9.017045126999999    -1.947246989000000    -2.146403812000000
 H    9.137558969000001    2.482413831000000    0.221390188000000
 H    11.187101897000000    -0.754663008000000    -1.769481830000000
 H    11.246152686000000    1.415942369000000    -0.609224153000000
 B    -2.605996636000000    -5.107376676000000    -0.115995908000000
 O    -3.755014777000000    -5.393088299000000    -0.849702921000000
 O    -2.176227875000000    -6.231263444000000    0.585687318000000
 C    -4.037497524000000    -6.717449354000000    -0.594716704000000
 C    -3.077598269000000    -7.227060906000000    0.277998624000000
 C    -5.074332441000000    -7.492381274000000    -1.077273048000000
 C    -3.105019842000000    -8.537891460999999    0.713174525000000
 C    -5.114189735000000    -8.823907808000000    -0.643926876000000
 C    -4.151340172000000    -9.335085682000001    0.231470795000000
 H    -5.813742267000000    -7.084935448000000    -1.754695006000000
 H    -2.353654309000000    -8.921904410000000    1.391128153000000
 H    -5.909445416000000    -9.470058173000000    -0.996075467000000
 H    -4.213944996000000    -10.370200047000001    0.545428833000000




