%nproc=15
%mem=70GB
%chk=ETTA_BoronicAcid_Borosilicate_freq.chk
#P B3LYP/6-311++G(d,p) EmpiricalDispersion=GD3 freq(noraman) SCF=YQC

Restart from ETTA_BoronicAcid_Borosilicate-1.log

0 1
 C  -0.000113   0.680902  -0.000086
 C  -0.000138  -0.680916  -0.000115
 C  -1.251545   1.478797  -0.120562
 C  -2.196044   1.199583  -1.119623
 H  -2.011337   0.384782  -1.809138
 C  -3.360114   1.948946  -1.221959
 H  -4.079814   1.718914  -1.999614
 C  -3.627236   3.002546  -0.332463
 C  -2.667866   3.289819   0.652528
 H  -2.850473   4.103171   1.346032
 C  -1.495186   2.551862   0.750157
 H  -0.762019   2.794554   1.511208
 C  -1.251593  -1.478770   0.120381
 C  -2.196072  -1.199511   1.119448
 H  -2.011338  -0.384693   1.808936
 C  -3.360161  -1.948840   1.221811
 H  -4.079841  -1.718783   1.999477
 C  -3.627327  -3.002443   0.332331
 C  -2.667978  -3.289756  -0.652669
 H  -2.850624  -4.103103  -1.346169
 C  -1.495275  -2.551839  -0.750320
 H  -0.762120  -2.794569  -1.511371
 C   1.251395   1.478696   0.120431
 C   1.495225   2.551646  -0.750369
 H   0.762146   2.794345  -1.511503
 C   2.667980   3.289478  -0.652711
 H   2.850755   4.102726  -1.346293
 C   3.627228   3.002197   0.332398
 C   3.359906   1.948723   1.221982
 H   4.079505   1.718698   1.999732
 C   2.195760   1.199477   1.119611
 H   2.010907   0.384744   1.809167
 C   1.251343  -1.478754  -0.120623
 C   2.195727  -1.199565  -1.119792
 H   2.010903  -0.384833  -1.809357
 C   3.359854  -1.948844  -1.222146
 H   4.079475  -1.718834  -1.999881
 C   3.627134  -3.002324  -0.332557
 C   2.667864  -3.289579   0.652538
 H   2.850603  -4.102838   1.346117
 C   1.495129  -2.551713   0.750180
 H   0.762034  -2.794386   1.511307
 B  -4.940825   3.822073  -0.436622
 O  -5.172047   4.850130   0.450587
 O  -5.859577   3.506185  -1.413130
Si  -6.339729   5.967189   0.774375
Si  -7.341064   4.003315  -1.935759
 O  -6.570265   6.931404  -0.549708
 O  -7.755762   5.197461   1.147240
 H  -5.926436   6.789726   1.903225
 O  -8.441938   3.850050  -0.710626
 O  -7.260986   5.586779  -2.407843
 H  -7.759394   3.184351  -3.065316
 B  -6.943709   6.798586  -1.858816
 H  -6.994719   7.769721  -2.542497
 B  -8.629646   4.325710   0.557881
 H  -9.584973   3.969510   1.169085
 B  -4.940934  -3.821937   0.436521
 O  -5.859703  -3.505942   1.412987
 O  -5.172163  -4.850052  -0.450609
Si  -7.341133  -4.003154   1.935701
Si  -6.339722  -5.967295  -0.774211
 O  -8.442028  -3.850274   0.710546
 O  -7.260897  -5.586527   2.408074
 H  -7.759541  -3.184033   3.065116
 O  -6.570135  -6.931281   0.550056
 O  -7.755823  -5.197774  -1.147253
 H  -5.926332  -6.790010  -1.902896
 B  -8.629907  -4.326274  -0.557804
 H  -9.585557  -3.970599  -1.168809
 B  -6.943260  -6.798326   1.859241
 H  -6.993680  -7.769328   2.543151
 B   4.940905   3.821580   0.436585
 O   5.859603   3.505579   1.413115
 O   5.172260   4.849611  -0.450610
Si   7.341058   4.002705   1.935841
Si   6.339918   5.966738  -0.774249
 O   8.441974   3.849665   0.710727
 O   7.260932   5.586112   2.408121
 H   7.759365   3.183617   3.065317
 O   6.570384   6.930785   0.549965
 O   7.755967   5.197078  -1.147210
 H   5.926624   6.789421  -1.902992
 B   8.629950   4.325551  -0.557653
 H   9.585597   3.969744  -1.168585
 B   6.943437   6.797898   1.859177
 H   6.993912   7.768949   2.543015
 B   4.940798  -3.821730  -0.436715
 O   5.172177  -4.849669   0.450591
 O   5.859462  -3.505848  -1.413307
Si   6.339978  -5.966579   0.774458
Si   7.340976  -4.002898  -1.935940
 O   6.570569  -6.930910  -0.549531
 O   7.755953  -5.196680   1.147194
 H   5.926802  -6.789039   1.903407
 O   8.441870  -3.849392  -0.710858
 O   7.261029  -5.586417  -2.407858
 H   7.759186  -3.184016  -3.065602
 B   6.943922  -6.798200  -1.858674
 H   6.994985  -7.769401  -2.542254
 B   8.629701  -4.324888   0.557692
 H   9.585029  -3.968522   1.168798






