%nproc=15
%mem=70GB
%chk=Triazine-TrisPhenyl_Ketoenamine_Ketoenamine.chk
#P B3LYP/6-311++G(d,p) EmpiricalDispersion=GD3 opt SCF=YQC NoSymm

Comment

0 1
 C    4.027462051000000    -3.893913718000000    0.310066179000000
 C    2.672148051000000    -4.262318718000000    0.319743179000000
 C    1.678672051000000    -3.300991718000001    0.229140179000000
 C    2.003629051000000    -1.937063718000000    0.160580179000000
 C    3.355470051000000    -1.566913718000000    0.187692179000000
 C    4.354395051000000    -2.527048718000000    0.261396179000000
 C    0.941359051000000    -0.909939718000000    0.077892179000000
 N    1.312939051000000    0.376982282000000    0.037767179000000
 C    0.318010051000000    1.271410282000000    -0.038992821000000
 N    -0.981642949000000    0.947974282000000    -0.075637821000000
 C    -1.260558949000000    -0.362144718000000    -0.031325821000000
 N    -0.332144949000000    -1.325265718000000    0.045418179000000
 C    0.676958051000000    2.706621282000000    -0.083768821000000
 C    -0.317350949000000    3.691753282000000    -0.190296821000000
 C    0.018704051000000    5.034651282000000    -0.245812821000000
 C    1.360665051000000    5.440586282000000    -0.161808821000000
 C    2.359252051000000    4.454275282000000    -0.075031821000000
 C    2.018771051000000    3.109724282000000    -0.036659821000000
 C    -2.682392949000000    -0.770638718000000    -0.066681821000000
 C    -3.700649949000000    0.190456282000000    -0.135975821000000
 C    -5.035099948999999    -0.188277718000000    -0.165449821000000
 C    -5.391426949000000    -1.548090718000000    -0.125807821000000
 C    -4.369830949000000    -2.511469718000000    -0.093439821000000
 C    -3.039347949000000    -2.128166718000000    -0.047251821000000
 H    0.636350051000000    -3.590416718000000    0.220005179000000
 H    2.423007051000000    -5.314639718000000    0.386235179000000
 H    5.392662051000000    -2.220384718000000    0.316972179000000
 H    3.609547051000000    -0.515584718000000    0.158735179000000
 H    -1.353435949000000    3.384405282000000    -0.238761821000000
 H    -0.746394949000000    5.795773282000000    -0.341783821000000
 H    3.403496051000000    4.745260282000000    -0.073396821000000
 H    2.789534051000000    2.352613282000000    0.021499179000000
 H    -3.429036949000000    1.237058282000000    -0.175087821000000
 H    -5.807122949000000    0.567416282000000    -0.254919821000000
 H    -4.647001949000000    -3.558870718000000    -0.092107821000000
 H    -2.256291949000000    -2.873402718000000    -0.005591821000000
 C    5.036552204000000    -5.000446132000000    0.370140232000000
 O    4.661220669000001    -6.169077465000000    0.438551869000000
 C    6.489072760000000    -4.665852179000000    0.331370223000000
 C    7.451907784000000    -5.594078139000000    0.427139284000000
 H    6.793543499000001    -3.637695410000000    0.209350124000000
 N    7.317593666000000    -6.949503642000000    0.562778127000000
 H    8.480100643000000    -5.249350045000000    0.385703748000000
 C    8.308412382000000    -7.940484617000000    0.659234655000000
 H    6.345997830000000    -7.273176243000000    0.572552556000000
 C    9.681493439000000    -7.663954598000000    0.700489156000000
 C    7.914797304000000    -9.286886031000000    0.707444137000000
 C    10.627413664000002    -8.691802748000001    0.788182238000000
 H    10.048874401999999    -6.644213362000000    0.670740850000000
 C    10.214726896000002    -10.019341409999999    0.834713917000000
 H    11.686318588000001    -8.449367385000000    0.820240839000000
 C    8.856498365000000    -10.318072450000001    0.794334373000000
 H    6.859090628000000    -9.546128267000000    0.674676403000000
 H    10.949168988000000    -10.817169904000000    0.902231148000000
 H    8.525651680999999    -11.352512880000001    0.829285634000000
 C    1.816031650000000    6.867309015000000    -0.220026654000000
 O    3.011031503000000    7.134154877000001    -0.110382946000000
 C    0.808197370000000    7.946791482000000    -0.425598680000000
 C    1.129952093000000    9.248330987999999    -0.442781305000000
 H    -0.226911379000000    7.683639142000000    -0.580512856000000
 N    2.363571319000000    9.822601215000001    -0.294410882000000
 H    0.323832853000000    9.957231722000000    -0.602049754000000
 C    2.725801976000000    11.179607214000001    -0.314223789000000
 H    3.125171006000000    9.148727854000001    -0.173090752000000
 C    1.803158287000000    12.227730378000000    -0.431223055000000
 C    4.085068737000000    11.517373412000000    -0.222781890000000
 C    2.220090937000000    13.563599770000000    -0.454613226000000
 H    0.738956416000000    12.032214357999999    -0.501748133000000
 C    3.572559036000000    13.875369549000000    -0.362612610000000
 H    1.483257025000000    14.357367796000000    -0.544559902000000
 C    4.507031277000000    12.851195697000000    -0.246487520000000
 H    4.834922889999999    10.734672194000000    -0.133931450000000
 H    3.896115754000000    14.912410730000000    -0.381339782000000
 H    5.565568221000000    13.086017260000000    -0.175027788000000
 C    -6.853916352000000    -1.870632201000000    -0.183924519000000
 O    -7.682375217000000    -0.962392022000000    -0.180959471000000
 C    -7.283951832000000    -3.296344495000000    -0.259330963000000
 C    -8.572274451000000    -3.667803857000000    -0.267649724000000
 H    -6.537305390000000    -4.073020206000000    -0.322510136000000
 N    -9.687345812000000    -2.875333106000000    -0.220506952000000
 H    -8.782360886999999    -4.730824840000000    -0.327524580000000
 C    -11.043851319000000    -3.239736115000000    -0.233627077000000
 H    -9.484664477000001    -1.871826544000000    -0.193069432000000
 C    -11.490984340000001    -4.567735101000000    -0.230003401000000
 C    -12.015170048000000    -2.226932886000000    -0.262320282000000
 C    -12.856310680000000    -4.874822107000000    -0.252553785000000
 H    -10.790306767000002    -5.394850864000000    -0.204383556000000
 C    -13.801716406000001    -3.854899125000000    -0.280830838000000
 H    -13.175947122000000    -5.913518076999999    -0.247501666000000
 C    -13.381217946000000    -2.528696821000000    -0.285727527000000
 H    -11.711586190000000    -1.182622603000000    -0.269371574000000
 H    -14.861558298000002    -4.093442628000000    -0.298892703000000
 H    -14.113177648000001    -1.725916523000000    -0.308682016000000




