%nproc=15
%mem=70GB
%chk=ExtendedTrisPhenyl_Ketoenamine_Ketoenamine_freq.chk
#P B3LYP/6-311++G(d,p) EmpiricalDispersion=GD3 freq(noraman) SCF=YQC NoSymm

Restart from ExtendedTrisPhenyl_Ketoenamine_Ketoenamine.log

0 1
 C   2.428447  -1.717080  -0.041877
 C   1.197823  -1.004449  -0.016587
 C  -0.021455  -1.698783   0.000455
 H  -0.022676  -2.780898  -0.005688
 C  -1.239012  -1.001718   0.025540
 C  -2.471526  -1.711337   0.041917
 C  -1.230504   0.401455   0.033722
 H  -2.166909   0.943475   0.053237
 C  -0.018027   1.107550   0.016621
 C  -0.016065   2.529821   0.024361
 C   1.192739   0.398716  -0.008602
 H   2.130362   0.938819  -0.021682
 C  -0.013912   3.739895   0.030600
 C  -0.010275   5.160051   0.036818
 C  -3.520313  -2.314821   0.055307
 C  -4.751711  -3.022175   0.069761
 C   3.475354  -2.323590  -0.063267
 C   4.703652  -3.035997  -0.089019
 C  -1.217651   5.879921   0.085239
 C  -1.210474   7.267729   0.082939
 H  -2.155446   5.339449   0.127723
 C  -0.004479   7.981795   0.039417
 H  -2.156934   7.790426   0.136926
 C   1.198819   7.261606   0.005516
 C   1.201604   5.876487  -0.002537
 H   2.128387   7.816439  -0.014282
 H   2.137201   5.331454  -0.037447
 C   4.718496  -4.444222  -0.101429
 C   5.919818  -5.133409  -0.124259
 H   3.778731  -4.983066  -0.090864
 C   7.144655  -4.450148  -0.149356
 H   5.936170  -6.216029  -0.123107
 C   7.129109  -3.048125  -0.132882
 C   5.930830  -2.348789  -0.099582
 H   8.055719  -2.488432  -0.124177
 H   5.931828  -1.265778  -0.078190
 C  -4.770744  -4.428571   0.066387
 C  -5.976134  -5.116384   0.071942
 H  -3.833210  -4.971151   0.062512
 C  -7.197912  -4.428511   0.088323
 H  -5.954683  -6.198653   0.085029
 C  -7.176188  -3.026046   0.106340
 C  -5.978389  -2.330577   0.090498
 H  -8.121388  -2.498579   0.132961
 H  -5.974645  -1.247260   0.095861
 C   0.070965   9.479814   0.049284
 O   1.166214   10.022983   0.290162
 C  -1.114026   10.257184  -0.238029
 C  -1.117709   11.628169  -0.224882
 H  -2.036370   9.766529  -0.509181
 N  -0.045407   12.396667   0.054893
 H  -2.033920   12.154207  -0.467257
 C   0.012153   13.796983   0.116525
 H   0.806674   11.855791   0.223013
 C  -1.130327   14.607706   0.148696
 C   1.278174   14.398696   0.161969
 C  -0.998434   15.992580   0.204622
 H  -2.120569   14.170227   0.149759
 C   0.260142   16.590161   0.243489
 H  -1.891337   16.607068   0.229598
 C   1.396895   15.781866   0.227060
 H   2.164842   13.774186   0.139283
 H   0.353776   17.668351   0.291865
 H   2.383720   16.229325   0.260793
 C   8.404927  -5.263183  -0.169671
 O   8.339144  -6.477366   0.102493
 C   9.657314  -4.631531  -0.521247
 C   10.847299  -5.312297  -0.538270
 H   9.680927  -3.594208  -0.818574
 N   10.989710  -6.617991  -0.232421
 H   11.749869  -4.787047  -0.828717
 C   12.176318  -7.365527  -0.198759
 H   10.103200  -7.081888  -0.018447
 C   13.449078  -6.780278  -0.232553
 C   12.068405  -8.761208  -0.112862
 C   14.584984  -7.584719  -0.201002
 H   13.563763  -5.704263  -0.264152
 C   14.476933  -8.972048  -0.121843
 H   15.563119  -7.117747  -0.227186
 C   13.209765  -9.553152  -0.072749
 H   11.084798  -9.217735  -0.084413
 H   15.365999  -9.590368  -0.092857
 H   13.106875  -10.630310  -0.006992
 C  -8.532381  -5.112952   0.110159
 O  -9.542425  -4.447153   0.408715
 C  -8.622229  -6.514963  -0.232430
 C  -9.807196  -7.204360  -0.212804
 H  -7.744814  -7.056050  -0.552375
 N  -10.999733  -6.672691   0.124622
 H  -9.812418  -8.249880  -0.498702
 C  -12.239479  -7.325398   0.195338
 H  -10.951585  -5.672170   0.333226
 C  -12.370919  -8.720273   0.170274
 C  -13.390809  -6.532839   0.310385
 C  -13.634591  -9.300614   0.239055
 H  -11.498096  -9.358447   0.116658
 C  -14.778814  -8.512144   0.347142
 H  -13.720726  -10.381207   0.219180
 C  -14.646163  -7.124131   0.387528
 H  -13.292834  -5.452729   0.332122
 H  -15.757982  -8.972015   0.404980
 H  -15.524948  -6.495485   0.475405






