%nproc=15
%mem=70GB
%chk=2_Phenyl_Aldehyde_Hydrazone.chk
#P B3LYP/6-311++G(d,p) EmpiricalDispersion=GD3 opt SCF=YQC NoSymm

Comment

0 1
 C    -0.000013000000000    -1.415145000000000    0.000000000000000
 C    0.000013000000000    1.415145000000000    0.000000000000000
 C    -1.206999000000000    -0.694755000000000    0.000000000000000
 C    1.206999000000000    0.694755000000000    0.000000000000000
 C    -1.206984000000000    0.694770000000000    0.000000000000000
 C    1.206984000000000    -0.694770000000000    0.000000000000000
 H    2.148535000000000    -1.233078000000000    0.000000000000000
 H    -2.148535000000000    1.233078000000000    0.000000000000000
 H    2.148565000000000    1.233036000000000    0.000000000000000
 H    -2.148565000000000    -1.233036000000000    0.000000000000000
 H    0.449143382000000    -9.647660824000001    -1.114146465000000
 C    -0.460682177000000    -9.203802595999999    -0.716677514000000
 C    -1.478939981000000    -10.025979492999999    -0.238128244000000
 H    -1.362572852000000    -11.106739278999999    -0.259718267000000
 C    -2.651408321000000    -9.462401678999999    0.257968083000000
 H    -3.453362694000000    -10.099735867000000    0.622178613000000
 C    -2.801341931000000    -8.074231768000001    0.282297802000000
 H    -3.726376151000000    -7.647483334000000    0.668035148000000
 C    -1.781126446000000    -7.232963667000000    -0.189890051000000
 C    -2.024614681000000    -5.755176659000000    -0.150139333000000
 C    -0.610271863000000    -7.812843471000000    -0.699955273000000
 H    0.196120390000000    -7.219073670000000    -1.113975890000000
 O    -3.178488255000000    -5.340070617000000    -0.232201377000000
 N    -0.907302921000000    -4.940947480000000    -0.017573501000000
 H    0.018036176000000    -5.318902910000000    0.121372286000000
 N    -1.061900360000000    -3.586505405000000    -0.032841129000000
 C    0.027503763000000    -2.890580300000000    0.019917649000000
 H    1.022080770000000    -3.368871342000000    0.070278930000000
 H    -0.449143382000000    9.647660824000001    1.114146465000000
 C    0.460682177000000    9.203802595999999    0.716677514000000
 C    1.478939981000000    10.025979492999999    0.238128244000000
 H    1.362572852000000    11.106739278999999    0.259718267000000
 C    2.651408321000000    9.462401678999999    -0.257968083000000
 H    3.453362694000000    10.099735867000000    -0.622178613000000
 C    2.801341931000000    8.074231768000001    -0.282297802000000
 H    3.726376151000000    7.647483334000000    -0.668035148000000
 C    1.781126446000000    7.232963667000000    0.189890051000000
 C    2.024614681000000    5.755176659000000    0.150139333000000
 C    0.610271863000000    7.812843471000000    0.699955273000000
 H    -0.196120390000000    7.219073670000000    1.113975890000000
 O    3.178488255000000    5.340070617000000    0.232201377000000
 N    0.907302921000000    4.940947480000000    0.017573501000000
 H    -0.018036176000000    5.318902910000000    -0.121372286000000
 N    1.061900360000000    3.586505405000000    0.032841129000000
 C    -0.027503763000000    2.890580300000000    -0.019917649000000
 H    -1.022080770000000    3.368871342000000    -0.070278930000000




