%nproc=15
%mem=70GB
%chk=2_Phenyl_Aldehyde_Hydrazone_freq.chk
#P B3LYP/6-311++G(d,p) EmpiricalDispersion=GD3 freq(noraman) SCF=YQC NoSymm

Restart from 2_Phenyl_Aldehyde_Hydrazone.log

0 1
 C  -0.029369  -1.407899   0.008455
 C   0.029369   1.407899  -0.008455
 C  -1.212374  -0.674789  -0.177616
 C   1.212374   0.674789   0.177616
 C  -1.178204   0.710319  -0.184847
 C   1.178204  -0.710319   0.184847
 H   2.099839  -1.265310   0.329376
 H  -2.099839   1.265310  -0.329376
 H   2.145748   1.206871   0.313370
 H  -2.145748  -1.206871  -0.313370
 H   0.428946  -9.508534  -1.263083
 C  -0.458095  -9.098334  -0.794080
 C  -1.399286  -9.947194  -0.214459
 H  -1.238630  -11.019339  -0.220158
 C  -2.554262  -9.415642   0.361243
 H  -3.292007  -10.074281   0.805083
 C  -2.764974  -8.041064   0.361732
 H  -3.664090  -7.612332   0.787058
 C  -1.813248  -7.180729  -0.196961
 C  -2.115411  -5.709416  -0.171020
 C  -0.661659  -7.719780  -0.783904
 H   0.061427  -7.075514  -1.272030
 O  -3.246324  -5.271667  -0.178748
 N  -0.986202  -4.900595  -0.118641
 H  -0.080681  -5.327235   0.057147
 N  -1.093925  -3.551517  -0.136047
 C  -0.021832  -2.868732   0.023469
 H   0.950810  -3.355667   0.177533
 H  -0.428946   9.508534   1.263083
 C   0.458095   9.098334   0.794080
 C   1.399286   9.947194   0.214459
 H   1.238630   11.019339   0.220158
 C   2.554262   9.415642  -0.361243
 H   3.292007   10.074281  -0.805083
 C   2.764974   8.041064  -0.361732
 H   3.664090   7.612332  -0.787058
 C   1.813248   7.180729   0.196961
 C   2.115411   5.709416   0.171020
 C   0.661659   7.719780   0.783904
 H  -0.061427   7.075514   1.272030
 O   3.246324   5.271667   0.178748
 N   0.986202   4.900595   0.118641
 H   0.080681   5.327235  -0.057147
 N   1.093925   3.551517   0.136047
 C   0.021832   2.868732  -0.023469
 H  -0.950810   3.355667  -0.177533






