%nproc=15
%mem=70GB
%chk=Adamantane_PrimaryAmine_Imide.chk
#P B3LYP/6-311++G(d,p) EmpiricalDispersion=GD3 opt SCF=YQC NoSymm

Comment

0 1
 C    -0.000001000000000    -0.000001000000000    1.760854000000000
 C    -0.000001000000000    -0.000001000000000    -1.760853000000000
 H    0.583501000000000    -0.548807000000000    -2.343561000000000
 H    -0.583501000000000    0.548807000000000    -2.343561000000000
 C    0.925717000000000    -0.871783000000000    0.897399000000000
 C    -0.925717000000000    0.871783000000000    0.897399000000000
 C    -0.871783000000000    -0.925717000000000    -0.897399000000000
 C    0.871783000000000    0.925717000000000    -0.897399000000000
 C    1.773370000000000    0.051568000000000    -0.002829000000000
 C    -1.773370000000000    -0.051569000000000    -0.002829000000000
 C    0.051568000000000    -1.773370000000000    0.002829000000000
 C    -0.051569000000000    1.773370000000000    0.002829000000000
 H    2.340312000000000    0.633966000000000    0.562907000000000
 H    -2.340313000000000    -0.633966000000000    0.562907000000000
 H    0.633966000000000    -2.340313000000000    -0.562907000000000
 H    -0.633966000000000    2.340312000000000    -0.562907000000000
 H    2.368699000000000    -0.498341000000000    -0.571393000000000
 H    -2.368700000000000    0.498341000000000    -0.571393000000000
 H    -0.498341000000000    -2.368700000000000    0.571393000000000
 H    0.498341000000000    2.368699000000000    0.571393000000000
 H    -0.548807000000000    -0.583501000000000    2.343561000000000
 H    0.548807000000000    0.583501000000000    2.343561000000000
 C    3.606122195000000    -2.484978980000000    2.834849208000000
 C    4.868921691000000    -2.705687806000000    3.353552016000000
 H    5.700826482000000    -2.056198492000000    3.099526178000000
 C    5.027946447000000    -3.794576782000000    4.216156508000000
 H    6.005529197000000    -4.003675264000000    4.647290773000000
 C    3.935701857000000    -4.625805514000000    4.535061431000000
 H    4.081233842000000    -5.468707904000000    5.208555510000000
 C    2.669116698000000    -4.378866330000000    3.996709087000000
 H    1.818456410000000    -5.010355982000000    4.233445946000000
 C    2.539667190000000    -3.294761719000000    3.147954331000000
 C    1.370601742000000    -2.783375158000000    2.441061613000000
 C    3.126154872000000    -1.449072853000000    1.926834531000000
 N    1.776761832000000    -1.672849863000000    1.724274317000000
 O    3.888155418000000    -0.594473352000000    1.510094721000000
 O    0.293690952000000    -3.343482554000000    2.546520782000000
 C    -3.606122115000000    2.484980497000000    2.834848055000000
 C    -4.868921761000000    2.705690170000000    3.353550139000000
 H    -5.700826916000000    2.056201615000000    3.099523556000000
 C    -5.027946181000000    3.794578984000000    4.216154897000000
 H    -6.005529035000000    4.003678113000000    4.647288613000000
 C    -3.935701120000000    4.625806726000000    4.535060790000000
 H    -4.081232849000000    5.468709007000000    5.208555061000000
 C    -2.669115820000000    4.378866698000000    3.996709164000000
 H    -1.818455172000000    5.010355582000000    4.233446774000000
 C    -2.539666653000000    3.294762268000000    3.147954125000000
 C    -1.370601171000000    2.783374999000000    2.441061975000000
 C    -3.126155056000000    1.449074287000000    1.926833333000000
 N    -1.776761707000000    1.672850273000000    1.724274048000000
 O    -3.888156029000000    0.594475543000000    1.510092754000000
 O    -0.293689995000000    3.343481488000001    2.546522013000000
 C    -3.093037135000000    -2.531623773000000    -3.352552781000000
 C    -3.961150866000000    -2.650395404000000    -4.422459042000000
 H    -4.275380379000000    -1.779314738000000    -4.988947669000000
 C    -4.413714182000000    -3.933869800000000    -4.743293116000000
 H    -5.097824708000000    -4.072059751000000    -5.578854778000000
 C    -3.993644855000000    -5.052791308000000    -3.996837345000000
 H    -4.358303517000000    -6.043426706000000    -4.263152648000001
 C    -3.114265281000000    -4.903790253000000    -2.920022401000000
 H    -2.781861493000000    -5.756423981000000    -2.336096127000000
 C    -2.681209830000000    -3.623873237000000    -2.625573718000000
 C    -1.776791802000000    -3.149332911000000    -1.584052206000000
 C    -2.453557994000000    -1.351131245000000    -2.782057724000000
 N    -1.672357745000000    -1.777631386000000    -1.723855395000000
 O    -2.653493970000000    -0.249664440000000    -3.263154064000000
 O    -1.283618234000000    -3.933672649000000    -0.792743298000000
 C    3.093037135000000    2.531623773000000    -3.352552781000000
 C    3.961150866000000    2.650395404000000    -4.422459042000000
 H    4.275380379000000    1.779314738000000    -4.988947669000000
 C    4.413714182000000    3.933869800000000    -4.743293116000000
 H    5.097824708000000    4.072059751000000    -5.578854778000000
 C    3.993644855000000    5.052791308000000    -3.996837345000000
 H    4.358303517000000    6.043426706000000    -4.263152648000001
 C    3.114265281000000    4.903790253000000    -2.920022401000000
 H    2.781861493000000    5.756423981000000    -2.336096127000000
 C    2.681209830000000    3.623873237000000    -2.625573718000000
 C    1.776791802000000    3.149332911000000    -1.584052206000000
 C    2.453557994000000    1.351131245000000    -2.782057724000000
 N    1.672357745000000    1.777631386000000    -1.723855395000000
 O    2.653493970000000    0.249664440000000    -3.263154064000000
 O    1.283618234000000    3.933672649000000    -0.792743298000000




