%nproc=15
%mem=70GB
%chk=ExtendedTrisPhenyl_PrimaryAmine_Imide_freq.chk
#P B3LYP/6-311++G(d,p) EmpiricalDispersion=GD3 freq(noraman) SCF=YQC NoSymm

Restart from ExtendedTrisPhenyl_PrimaryAmine_Imide.log

0 1
 C   2.422873  -1.666089  -0.059957
 C   1.196017  -0.946476  -0.033603
 C  -0.027053  -1.633975  -0.016065
 H  -0.034414  -2.716070  -0.022838
 C  -1.240656  -0.930168   0.010260
 C  -2.477191  -1.633293   0.027815
 C  -1.224327   0.472869   0.019006
 H  -2.157635   1.020191   0.039281
 C  -0.007961   1.172173   0.001471
 C   0.001723   2.594685   0.010133
 C   1.198780   0.456655  -0.024809
 H   2.139444   0.991447  -0.038351
 C   0.009988   3.804511   0.017405
 C   0.019769   5.225372   0.026073
 C  -3.528699  -2.231557   0.042610
 C  -4.763555  -2.934298   0.059928
 C   3.466146  -2.278370  -0.082230
 C   4.691208  -2.997779  -0.108452
 C  -1.184073   5.952020   0.041727
 C  -1.176303   7.339143   0.044135
 H  -2.126450   5.418471   0.047180
 C   0.039142   8.028844   0.042956
 H  -2.107851   7.887162   0.061277
 C   1.244945   7.322481   0.033406
 C   1.233540   5.935457   0.019110
 H   2.183980   7.857737   0.022803
 H   2.168451   5.389036   0.007139
 C   4.698771  -4.403974  -0.101455
 C   5.893921  -5.107827  -0.121078
 H   3.758152  -4.940024  -0.075648
 C   7.108297  -4.417351  -0.160259
 H   5.887387  -6.188727  -0.120498
 C   7.119016  -3.019953  -0.173608
 C   5.922371  -2.319085  -0.141958
 H   8.059519  -2.487575  -0.194160
 H   5.931882  -1.236195  -0.147782
 C  -4.790690  -4.339935   0.029360
 C  -5.995465  -5.027381   0.040111
 H  -3.857675  -4.888462  -0.007825
 C  -7.200040  -4.320899   0.093936
 H  -6.003946  -6.108102   0.021304
 C  -7.191284  -2.923908   0.130849
 C  -5.985087  -2.239269   0.107951
 H  -8.124233  -2.378952   0.162754
 H  -5.979535  -1.156604   0.132014
 C   0.576351   11.662675  -0.406019
 C   1.118002   12.841263  -0.892064
 H   1.914660   12.825721  -1.625743
 C   0.594734   14.040091  -0.395963
 H   0.991588   14.984417  -0.750239
 C  -0.434138   14.041553   0.552640
 H  -0.818118   14.986992   0.917964
 C  -0.973735   12.844247   1.034726
 H  -1.770599   12.830983   1.768226
 C  -0.448160   11.664154   0.534881
 C  -0.807459   10.254403   0.849398
 C   0.916356   10.251933  -0.737106
 N   0.048980   9.452444   0.051452
 O   1.747833   9.842140  -1.508813
 O  -1.644588   9.846982   1.616235
 C   9.969123  -6.705674  -0.684018
 C   10.701683  -7.769434  -1.184485
 H   10.264815  -8.459039  -1.896370
 C   12.017841  -7.911082  -0.731956
 H   12.624564  -8.730879  -1.098803
 C   12.566007  -7.011173   0.188970
 H   13.588733  -7.148007   0.520728
 C   11.816092  -5.939847   0.685962
 H   12.228147  -5.235627   1.398336
 C   10.514881  -5.809590   0.229266
 C   9.485281  -4.789742   0.568700
 C   8.566867  -6.297553  -0.971298
 N   8.335701  -5.138176  -0.186575
 O   7.770028  -6.820501  -1.710479
 O   9.577537  -3.853126   1.323061
 C  -10.626450  -5.659078  -0.310863
 C  -11.930312  -5.763593  -0.766614
 H  -12.334166  -5.041656  -1.465828
 C  -12.693822  -6.832907  -0.286279
 H  -13.719047  -6.949969  -0.617892
 C  -12.156119  -7.755960   0.617755
 H  -12.773277  -8.573540   0.971921
 C  -10.837167  -7.640180   1.069510
 H  -10.408296  -8.347851   1.768410
 C  -10.091119  -6.578127   0.585612
 C  -8.682744  -6.194333   0.876445
 C  -9.583606  -4.647852  -0.635314
 N  -8.437288  -5.024975   0.111094
 O  -9.664570  -3.697296  -1.373360
 O  -7.891598  -6.740797   1.604650






