%nproc=15
%mem=70GB
%chk=Pyrene_BoronicAcid_Borosilicate.chk
#P B3LYP/6-311++G(d,p) EmpiricalDispersion=GD3 opt SCF=YQC

Comment

0 1
 C    0.000149000000000    3.538221000000000    0.000000000000000
 C    -1.208314000000000    2.825814000000000    0.000000000000000
 C    -1.234523000000000    1.426499000000000    0.000000000000000
 C    0.000173000000000    0.711855000000000    0.000000000000000
 C    1.234878000000000    1.426489000000000    0.000000000000000
 C    1.208633000000000    2.825798000000000    0.000000000000000
 H    -2.147734000000000    3.368891000000000    0.000000000000000
 H    2.148055000000000    3.368886000000000    0.000000000000000
 C    0.000167000000000    -0.711882000000000    0.000000000000000
 C    -1.234536000000000    -1.426518000000000    0.000000000000000
 C    -1.208310000000000    -2.825825000000000    0.000000000000000
 C    0.000175000000000    -3.538236000000000    0.000000000000000
 C    1.208656000000000    -2.825835000000000    0.000000000000000
 C    1.234871000000000    -1.426526000000000    0.000000000000000
 H    -2.147732000000000    -3.368910000000000    0.000000000000000
 H    2.148078000000000    -3.368915000000000    0.000000000000000
 C    2.463326000000000    0.679235000000000    0.000000000000000
 C    2.463326000000000    -0.679271000000000    0.000000000000000
 H    3.399127000000000    1.228117000000000    0.000000000000000
 H    3.399123000000000    -1.228155000000000    0.000000000000000
 C    -2.462978000000000    0.679245000000000    0.000000000000000
 C    -2.462987000000000    -0.679261000000000    0.000000000000000
 H    -3.398774000000000    1.228133000000000    0.000000000000000
 H    -3.398787000000000    -1.228142000000000    0.000000000000000
 B    -0.011430273000000    5.114120331000000    0.034968827000000
 O    -1.169046966000000    5.790149392000000    0.014572024000000
 O    1.137603889000000    5.805762406000000    0.052557417000000
Si    -1.766612627000000    7.262912904000000    -0.155972593000000
Si    1.719063298000000    7.289172084000000    -0.073217621000000
 O    -1.214201005000000    8.142229435000001    1.059018911000000
 O    -1.149328266000000    7.877931813000000    -1.496641107000000
 H    -3.235693747000000    7.247492435000000    -0.196295435000000
 O    1.158448086000000    7.906693699000000    -1.436907324000000
 O    1.094505352000000    8.149174214000000    1.121033748000000
 H    3.188426196000000    7.296505890000000    -0.039668928000000
 B    -0.076054232000000    8.538522615000000    1.645190093000000
 H    -0.107060231000000    8.979838331000000    2.739559720000000
 B    0.017548175000000    8.160017626000000    -2.092881407000000
 H    0.046065382000000    8.326918850000000    -3.261054176000000
 B    0.011898580000000    -5.114134265000000    0.034968827000000
 O    1.169577173000000    -5.790057318000000    0.014572024000000
 O    -1.137072243000000    -5.805881554000000    0.052557417000000
Si    1.767277694000000    -7.262766104000000    -0.155972593000000
Si    -1.718395812000000    -7.289344471000000    -0.073217621000000
 O    1.214946594000000    -8.142133216000000    1.059018911000000
 O    1.150049654000000    -7.877841536000000    -1.496641107000000
 H    3.236357396000000    -7.247211109000000    -0.196295435000000
 O    -1.157724055000000    -7.906814748000000    -1.436907324000000
 O    -1.093759117000000    -8.149289405999999    1.121033748000000
 H    -3.187758032000000    -7.296812828000000    -0.039668928000000
 B    0.076836115000000    -8.538530615999999    1.645190093000000
 H    0.107882526000000    -8.979843491000000    2.739559720000000
 B    -0.016800952000000    -8.160034200000000    -2.092881407000000
 H    -0.045302875000000    -8.326938035000000    -3.261054176000000




