%nproc=15
%mem=70GB
%chk=ExtendedTrisPhenyl_BoronicAcid_Boroxine_freq.chk
#P B3LYP/6-311++G(d,p) EmpiricalDispersion=GD3 freq(noraman) SCF=YQC

Restart from ExtendedTrisPhenyl_BoronicAcid_Boroxine.log

0 1
 C  -0.767295   2.722796   0.000272
 C  -0.381368   1.353821   0.000259
 C  -1.355751   0.344160   0.000242
 H  -2.404568   0.610564   0.000237
 C  -0.981449  -1.008125   0.000236
 C  -1.974056  -2.026836   0.000255
 C   0.380118  -1.347191   0.000233
 H   0.673814  -2.388706   0.000215
 C   1.364050  -0.346858   0.000275
 C   2.742599  -0.697038   0.000290
 C   0.976895   1.001826   0.000291
 H   1.732045   1.776910   0.000316
 C   3.915392  -0.994607   0.000280
 C   5.292418  -1.343799   0.000179
 C  -2.818470  -2.893416   0.000277
 C  -3.809755  -3.911018   0.000161
 C  -1.096012   3.887246   0.000261
 C  -1.482204   5.254360   0.000111
 C   5.686717  -2.695739  -0.000877
 C   7.032942  -3.029763  -0.000962
 H   4.926980  -3.468046  -0.001630
 C   8.028922  -2.037642   0.000001
 H   7.326829  -4.073426  -0.001781
 C   7.625924  -0.690837   0.001040
 C   6.283204  -0.343028   0.001128
 H   8.381572   0.086716   0.001780
 H   5.983162   0.697954   0.001927
 C  -2.844283   5.612043  -0.000236
 C  -3.214467   6.948768  -0.000381
 H  -3.595779   4.831706  -0.000383
 C  -2.249620   7.971209  -0.000181
 H  -4.265682   7.214380  -0.000661
 C  -0.892432   7.604698   0.000189
 C  -0.508565   6.271834   0.000337
 H  -0.135520   8.381027   0.000356
 H   0.540146   6.000082   0.000630
 C  -5.177607  -3.576022   0.000616
 C  -6.140331  -4.574549   0.000550
 H  -5.466196  -2.531811   0.001026
 C  -5.779613  -5.933295   0.000022
 H  -7.191020  -4.306855   0.000931
 C  -4.411871  -6.258180  -0.000463
 C  -3.438968  -5.269577  -0.000403
 H  -4.116683  -7.301474  -0.000886
 H  -2.387535  -5.530622  -0.000779
 B   9.526094  -2.417066  -0.000071
 O   10.507433  -1.436654   0.000895
 B   11.840351  -1.768596   0.000774
 O   9.922231  -3.746473  -0.001168
 B   11.252369  -4.089312  -0.001301
 O   12.209305  -3.096925  -0.000334
 H   12.668218  -0.920070   0.001632
 H   11.576299  -5.229677  -0.002227
 B  -2.669595   9.457513  -0.000369
 O  -4.009286   9.817186  -0.000621
 B  -4.388346   11.137492  -0.000598
 O  -1.716398   10.465270  -0.000055
 B  -2.084587   11.788639  -0.000032
 O  -3.422485   12.121232  -0.000278
 H  -5.537135   11.430138  -0.000835
 H  -1.258950   12.639339   0.000232
 B  -6.857084  -7.039894   0.000025
 O  -6.498973  -8.380023  -0.000505
 B  -7.453016  -9.368268  -0.000582
 O  -8.206360  -6.717979   0.000399
 B  -9.168503  -7.698373   0.000321
 O  -8.787780  -9.023405  -0.000163
 H  -7.132266  -10.509530  -0.000995
 H  -10.318007  -7.408545   0.000678






