%nproc=15
%mem=70GB
%chk=ExtendedTrisPhenyl_BoronicAcid_Boroxine.chk
#P B3LYP/6-311++G(d,p) EmpiricalDispersion=GD3 opt SCF=YQC

Comment

0 1
 C    2.406280000000000    -1.304070000000000    -0.188810000000000
 C    1.203390000000000    -0.548970000000000    -0.106440000000000
 C    -0.027230000000000    -1.203660000000000    -0.047250000000000
 H    -0.068540000000000    -2.290310000000000    -0.082140000000000
 C    -1.205400000000000    -0.462500000000000    0.059980000000000
 C    -2.456090000000000    -1.145820000000000    0.109240000000000
 C    -1.153500000000000    0.928000000000000    0.109830000000000
 H    -2.069380000000000    1.508030000000000    0.195200000000000
 C    0.083700000000000    1.572160000000000    0.044410000000000
 C    0.148000000000000    2.991420000000000    0.079300000000000
 C    1.263040000000000    0.839400000000000    -0.064700000000000
 H    2.222880000000000    1.348280000000000    -0.114060000000000
 C    0.175490000000000    4.190400000000000    0.090480000000000
 C    0.127670000000000    5.611430000000000    0.085080000000000
 C    -3.456150000000000    -1.808590000000000    0.128860000000000
 C    -4.564140000000000    -2.707110000000000    0.127640000000000
 C    3.394430000000000    -1.983070000000000    -0.219750000000000
 C    4.502070000000000    -2.877030000000000    -0.213360000000000
 C    -1.117180000000000    6.242170000000000    0.077500000000000
 C    -1.189510000000000    7.632000000000000    0.064410000000000
 H    -2.030180000000000    5.651340000000000    0.079790000000000
 C    -0.016980000000000    8.387359999999999    0.058750000000000
 H    -2.159150000000000    8.121460000000001    0.057590000000000
 C    1.227970000000000    7.755110000000000    0.065810000000000
 C    1.302670000000000    6.362820000000000    0.078900000000000
 H    2.139400000000000    8.346740000000000    0.060060000000000
 H    2.273040000000000    5.872360000000000    0.082380000000000
 C    4.252440000000000    -4.250540000000001    -0.198640000000000
 C    5.314610000000000    -5.149730000000000    -0.169460000000000
 H    3.229840000000000    -4.620520000000000    -0.204530000000000
 C    6.625220000000000    -4.673790000000000    -0.155500000000000
 H    5.116950000000000    -6.217720000000000    -0.154560000000000
 C    6.874820000000000    -3.299950000000000    -0.171320000000000
 C    5.811540000000000    -2.397060000000000    -0.200240000000000
 H    7.897730000000000    -2.933230000000000    -0.157900000000000
 H    6.009820000000000    -1.328100000000000    -0.207300000000000
 C    -4.315700000000000    -4.082170000000000    0.120760000000000
 C    -5.377930000000000    -4.983700000000000    0.105750000000000
 H    -3.293760000000000    -4.454150000000001    0.124030000000000
 C    -6.689040000000000    -4.509870000000000    0.098020000000000
 H    -5.180530000000000    -6.052100000000000    0.098250000000000
 C    -6.938440000000000    -3.136120000000000    0.105990000000000
 C    -5.875190000000000    -2.231340000000000    0.120820000000000
 H    -7.961900000000000    -2.770510000000000    0.098710000000000
 H    -6.075870000000000    -1.163000000000000    0.123970000000000
 B    -0.018294839000000    9.935899017000001    0.064153205000000
 O    1.171939112000000    10.646459045000000    0.065407964000000
 B    1.176929429000000    12.020519066000000    0.070299638000000
 O    -1.209730290000000    10.644429316000000    0.068281705000000
 B    -1.217050968000000    12.018478863000000    0.073181907000000
 O    -0.020640361000000    12.703224038000000    0.074132059000000
 H    2.202441229000000    12.615020349000000    0.071619833000000
 H    -2.243568940000000    12.611230516999999    0.076968814000000
 B    7.893390655000001    -5.562342725000000    -0.170374635000000
 O    7.791174351000000    -6.944767303000000    -0.173220555000000
 B    8.912920253999999    -7.738243807000000    -0.186295055000000
 O    9.157769801000001    -4.994197634000001    -0.180728216000000
 B    10.286579649000000    -5.777591510000000    -0.193847848000000
 O    10.159683757000000    -7.150240361000000    -0.196633419000000
 H    8.810350260000000    -8.919168631000000    -0.188276068000000
 H    11.361457976000001    -5.277918578000000    -0.202306681000000
 B    -7.974746021000000    -5.372931971000000    0.107404792000000
 O    -9.227578689000000    -4.779669749000000    0.109461169000000
 B    -10.371847081000000    -5.540372539000000    0.117880509000000
 O    -7.900143157000000    -6.757105521000000    0.114380420000000
 B    -9.037549980000000    -7.528029820000000    0.122818863000000
 O    -10.272375700000000    -6.915267374000000    0.124498958000000
 H    -11.436572204999999    -5.019349971000000    0.119845830000000
 H    -8.958565221000001    -8.710751701000000    0.129013291000000




