%nproc=15
%mem=70GB
%chk=Adamantane_AmineBorane_Borazine_freq.chk
#P B3LYP/6-311++G(d,p) EmpiricalDispersion=GD3 freq(noraman) SCF=YQC

Restart from Adamantane_AmineBorane_Borazine.log

0 1
 C   1.779714   0.000387  -0.000050
 C  -1.779657  -0.000396   0.000062
 H  -2.425653   0.741266  -0.474259
 H  -2.425298  -0.742341   0.474424
 C   0.904564   1.085820  -0.654369
 C   0.905083  -1.085431   0.654325
 C  -0.904654  -0.654543  -1.085594
 C  -0.904873   0.654135   1.085665
 C   0.021643   1.709196   0.441856
 C   0.022367  -1.709197  -0.441844
 C  -0.022096   0.441853  -1.709203
 C  -0.021794  -0.441873   1.709218
 H   0.638672   2.156119   1.225812
 H   0.639542  -2.155850  -1.225839
 H  -0.639375   1.225708  -2.155961
 H  -0.638699  -1.225999   2.156013
 H  -0.584381   2.506307   0.012081
 H  -0.583280  -2.506573  -0.012028
 H   0.583810   0.012195  -2.506464
 H   0.583974  -0.011949   2.506441
 H   2.425613  -0.473821  -0.741869
 H   2.425451   0.474880   0.741728
 N   1.783325   2.101226  -1.322813
 B   2.663167   1.655986  -2.375653
 B   1.800273   3.492354  -0.958885
 H   2.701363   0.516998  -2.715951
 N   3.516334   2.593751  -3.034324
 H   1.116697   3.942940  -0.100862
 N   2.678537   4.387759  -1.654597
 B   3.555132   3.981871  -2.702116
 H   4.117714   2.248621  -3.766875
 H   2.667200   5.357667  -1.377872
 H   4.274370   4.748398  -3.263869
 N   1.784336  -2.100449   1.322710
 B   2.664057  -1.654821   2.375486
 B   1.801880  -3.491568   0.958775
 H   2.701793  -0.515812   2.715765
 N   3.517738  -2.592195   3.034048
 H   1.118456  -3.942452   0.100786
 N   2.680637  -4.386573   1.654378
 B   3.557149  -3.980292   2.701815
 H   4.119042  -2.246793   3.766533
 H   2.669734  -5.356479   1.377630
 H   4.276812  -4.746489   3.263473
 N  -1.783567  -1.323204  -2.100735
 B  -1.801003  -0.959350  -3.491887
 B  -2.663119  -2.376153  -1.655167
 H  -1.117834  -0.101133  -3.942709
 N  -2.679451  -1.655239  -4.386978
 H  -2.700955  -2.716355  -0.516140
 N  -3.516488  -3.034996  -2.592625
 B  -3.555750  -2.702875  -3.980751
 H  -2.668515  -1.378521  -5.356892
 H  -4.117658  -3.767615  -2.247272
 H  -4.275150  -3.264773  -4.747021
 N  -1.784016   1.322408   2.100862
 B  -1.801206   0.958543   3.492014
 B  -2.664058   2.374973   1.655352
 H  -1.117622   0.100634   3.942794
 N  -2.679873   1.654072   4.387170
 H  -2.702098   2.715176   0.516332
 N  -3.517627   3.033467   2.592873
 B  -3.556645   2.701335   3.981003
 H  -2.668741   1.377369   5.357086
 H  -4.119124   3.765837   2.247563
 H  -4.276216   3.262940   4.747326






