%nproc=15
%mem=70GB
%chk=Adamantane_AmineBorane_Borazine.chk
#P B3LYP/6-311++G(d,p) EmpiricalDispersion=GD3 opt SCF=YQC

Comment

0 1
 C    -0.000001000000000    -0.000001000000000    1.760854000000000
 C    -0.000001000000000    -0.000001000000000    -1.760853000000000
 H    0.583501000000000    -0.548807000000000    -2.343561000000000
 H    -0.583501000000000    0.548807000000000    -2.343561000000000
 C    0.925717000000000    -0.871783000000000    0.897399000000000
 C    -0.925717000000000    0.871783000000000    0.897399000000000
 C    -0.871783000000000    -0.925717000000000    -0.897399000000000
 C    0.871783000000000    0.925717000000000    -0.897399000000000
 C    1.773370000000000    0.051568000000000    -0.002829000000000
 C    -1.773370000000000    -0.051569000000000    -0.002829000000000
 C    0.051568000000000    -1.773370000000000    0.002829000000000
 C    -0.051569000000000    1.773370000000000    0.002829000000000
 H    2.340312000000000    0.633966000000000    0.562907000000000
 H    -2.340313000000000    -0.633966000000000    0.562907000000000
 H    0.633966000000000    -2.340313000000000    -0.562907000000000
 H    -0.633966000000000    2.340312000000000    -0.562907000000000
 H    2.368699000000000    -0.498341000000000    -0.571393000000000
 H    -2.368700000000000    0.498341000000000    -0.571393000000000
 H    -0.498341000000000    -2.368700000000000    0.571393000000000
 H    0.498341000000000    2.368699000000000    0.571393000000000
 H    -0.548807000000000    -0.583501000000000    2.343561000000000
 H    0.548807000000000    0.583501000000000    2.343561000000000
 N    1.788346944000000    -1.702793374000000    1.728763069000000
 B    1.227577303000000    -2.818290875000000    2.625631664000000
 B    3.313907724000000    -1.516443342000000    1.762159405000000
 H    0.081472634000000    -3.067203161000000    2.676708591000000
 N    2.116633996000000    -3.694648771000000    3.503088308000000
 H    3.860099926000000    -0.690180271000000    1.132015719000000
 N    4.230019788000000    -2.377590168000000    2.626764341000000
 B    3.616109212000000    -3.462096614000000    3.492556266000000
 H    1.701120210000000    -4.445435827000000    4.098706994000000
 H    5.262718308000000    -2.220686100000000    2.627018244000000
 H    4.314872626000000    -4.134394637000000    4.167289408000000
 N    -1.788346798000000    1.702793792000000    1.728762803000000
 B    -1.227576821000000    2.818290538000000    2.625632128000000
 B    -3.313907750000000    1.516444984000000    1.762158112000000
 H    -0.081471983000000    3.067201880000000    2.676709864000000
 N    -2.116633360000000    3.694648858000000    3.503088504000000
 H    -3.860100222000000    0.690182566000000    1.132013802000000
 N    -4.230019664000000    2.377592260000000    2.626762757000000
 B    -3.616108758000000    3.462097918000000    3.492555436000000
 H    -1.701119344000000    4.445435377000000    4.098707706000000
 H    -5.262718311000000    2.220689028000000    2.627015954000000
 H    -4.314872054000000    4.134396279000000    4.167288362000000
 N    -1.696816712000000    -1.798908222000000    -1.723674584000000
 B    -1.628192124000000    -3.330598117000000    -1.612376441000000
 B    -2.687864133000000    -1.243892482000000    -2.759512351000000
 H    -0.920872594000000    -3.874248641000000    -0.849313351000000
 N    -2.482939689000000    -4.257842309000001    -2.471434027000000
 H    -2.822068785000000    -0.092844277000000    -2.947115103000000
 N    -3.557916228000000    -2.144267993000000    -3.631699347000000
 B    -3.443259771000000    -3.649395547000000    -3.476518715000000
 H    -2.411800794000000    -5.294752065000000    -2.367261353000000
 H    -4.218570601000000    -1.732260741000000    -4.328026143000000
 H    -4.110612768000000    -4.356897248000000    -4.147041698000000
 N    1.696816712000000    1.798908222000000    -1.723674584000000
 B    1.628192124000000    3.330598117000000    -1.612376441000000
 B    2.687864133000000    1.243892482000000    -2.759512351000000
 H    0.920872594000000    3.874248641000000    -0.849313351000000
 N    2.482939689000000    4.257842309000001    -2.471434027000000
 H    2.822068785000000    0.092844277000000    -2.947115103000000
 N    3.557916228000000    2.144267993000000    -3.631699347000000
 B    3.443259771000000    3.649395547000000    -3.476518715000000
 H    2.411800794000000    5.294752065000000    -2.367261353000000
 H    4.218570601000000    1.732260741000000    -4.328026143000000
 H    4.110612768000000    4.356897248000000    -4.147041698000000




