%nproc=15
%mem=70GB
%chk=T-brick_Aldehyde_Azine_freq.chk
#P B3LYP/6-311++G(d,p) EmpiricalDispersion=GD3 freq(noraman) SCF=YQC

Restart from T-brick_Aldehyde_Azine.log

0 1
 N   1.336755  -0.621590   0.030714
 C   0.845743  -1.912176   0.016837
 C  -0.557193  -1.762670  -0.091838
 N  -0.882331  -0.421321  -0.136455
 C  -1.400054  -2.896661  -0.090392
 C  -2.869306  -2.799598  -0.204694
 C  -0.754564  -4.133005   0.033627
 H  -1.348691  -5.038385   0.004155
 C   0.635480  -4.257385   0.149456
 H   1.069189  -5.248986   0.209791
 C   1.489885  -3.150241   0.139708
 C   2.956932  -3.271064   0.256343
 C  -3.702415  -3.703379   0.483304
 C   3.536012  -4.145890   1.186102
 C   3.814987  -2.514453  -0.565570
 C  -3.477418  -1.820467  -1.005300
 C  -4.859624  -1.762634  -1.124952
 H  -2.860996  -1.104728  -1.531020
 C   5.192095  -2.619958  -0.457140
 H   3.389081  -1.869271  -1.326449
 C  -5.685420  -2.669717  -0.444596
 H  -5.309040  -1.003021  -1.756676
 C  -5.080665  -3.643645   0.368562
 H  -3.258392  -4.445373   1.136743
 C   4.916925  -4.254751   1.295446
 H   2.895655  -4.726712   1.839699
 C   5.768289  -3.491817   0.482894
 H   5.842990  -2.044022  -1.103260
 H   5.344341  -4.931692   2.028124
 H  -5.710243  -4.338534   0.910189
 C   0.256047   0.234679  -0.054759
 H   2.293981  -0.367035   0.212235
 C   0.384831   1.690582  -0.057429
 C  -0.772772   2.480027   0.075377
 C  -0.688857   3.859914   0.081996
 H  -1.728843   1.982242   0.176220
 C   1.625332   2.329185  -0.190005
 C   0.556513   4.503703  -0.044261
 H  -1.580439   4.464940   0.187695
 C   1.708090   3.715761  -0.181070
 H   2.535374   1.754055  -0.319755
 H   2.675373   4.195460  -0.287165
 C  -7.132500  -2.569587  -0.596182
 N  -7.946781  -3.365564   0.000632
 H  -7.523395  -1.781498  -1.246548
 N  -9.275785  -3.086241  -0.288981
 C  -10.091808  -3.878022   0.307973
 C  -11.541672  -3.772503   0.152142
 H  -9.705098  -4.666106   0.960867
 C  -12.367013  -4.675904   0.838022
 C  -13.752409  -4.606991   0.714936
 H  -11.917255  -5.434834   1.470125
 C  -14.330492  -3.632692  -0.096455
 H  -14.378649  -5.311369   1.250578
 C  -13.516605  -2.727389  -0.784380
 H  -15.408839  -3.576452  -0.194322
 C  -12.135262  -2.793529  -0.663694
 H  -13.966046  -1.969086  -1.415827
 H  -11.496274  -2.097148  -1.192159
 C   7.213961  -3.628199   0.633693
 N   8.044667  -2.951401  -0.075127
 H   7.585287  -4.335571   1.380816
 N   9.368438  -3.237089   0.231668
 C   10.198864  -2.572397  -0.488541
 C   11.646652  -2.707536  -0.342895
 H   9.825548  -1.874966  -1.244242
 C   12.486506  -1.947834  -1.170822
 C   13.870969  -2.048882  -1.061884
 H   12.049094  -1.276047  -1.902350
 C   14.432775  -2.911547  -0.122723
 H   14.509116  -1.456601  -1.707659
 C   13.604302  -3.673106   0.707287
 H   15.510431  -2.992392  -0.035536
 C   12.223800  -3.574881   0.601057
 H   14.041740  -4.344299   1.437844
 H   11.573525  -4.160413   1.238843
 C   0.685579   5.957654  -0.039622
 N  -0.330063   6.734822   0.082585
 H   1.687858   6.383012  -0.144634
 N   0.016736   8.078726   0.061610
 C  -1.000804   8.853360   0.186529
 C  -0.881744   10.309575   0.192451
 H  -2.000753   8.422948   0.293522
 C  -2.042154   11.085079   0.334344
 C  -1.969603   12.475519   0.344727
 H  -3.003802   10.592716   0.436827
 C  -0.734723   13.107699   0.213189
 H  -2.873511   13.063564   0.455104
 C   0.427817   12.343721   0.071201
 H  -0.675087   14.190234   0.220922
 C   0.358987   10.957437   0.060468
 H   1.388406   12.836042  -0.031102
 H   1.253139   10.356599  -0.048915






