%nproc=15
%mem=70GB
%chk=TPG_Aldehyde_Hydrazone_freq.chk
#P B3LYP/6-311++G(d,p) EmpiricalDispersion=GD3 freq(noraman) SCF=YQC

Restart from TPG_Aldehyde_Hydrazone.log

0 1
 C   0.805774   1.173429   0.050854
 C  -0.605577   1.267579   0.050666
 O  -1.227895   2.450635   0.049256
 C  -1.419662   0.111070   0.050320
 C  -0.795537  -1.158269   0.050618
 O  -1.508964  -2.288713   0.049256
 C   0.613074  -1.285048   0.050645
 C   1.400306  -0.109846   0.051050
 O   2.736020  -0.162402   0.049993
 H  -2.479408  -2.068496   0.048586
 H   3.030623  -1.112940   0.049442
 H  -0.551979   3.180994   0.048926
 H   5.444336   7.931663   1.171524
 C   4.500821   7.998675   0.642156
 C   4.158260   9.169226  -0.032475
 H   4.841764   10.010703  -0.039222
 C   2.929631   9.260385  -0.688106
 H   2.657410   10.172597  -1.206569
 C   2.049290   8.183983  -0.673936
 H   1.084597   8.242387  -1.162815
 C   2.396173   6.997486  -0.018151
 C   1.394080   5.881880  -0.039188
 C   3.624826   6.915250   0.648973
 H   3.890080   6.025959   1.210166
 O   0.196822   6.068975  -0.142489
 N   1.942288   4.614027   0.055547
 H   2.943862   4.480249  -0.033476
 N   1.127265   3.526651   0.060423
 C   1.649310   2.348716   0.046079
 H   2.729834   2.192908   0.028780
 H  -9.591530   0.750676   1.168687
 C  -9.177961  -0.100851   0.640670
 C  -10.020651  -0.984305  -0.031671
 H  -11.091191  -0.813394  -0.038001
 C  -9.485456  -2.095038  -0.685534
 H  -10.139532  -2.788050  -1.202211
 C  -8.113028  -2.318864  -0.671892
 H  -7.681383  -3.184359  -1.159380
 C  -7.258700  -1.423748  -0.018392
 C  -5.791461  -1.733616  -0.039579
 C  -7.801640  -0.317459   0.646996
 H  -7.163916   0.358095   1.206511
 O  -5.354802  -2.864116  -0.141572
 N  -4.967565  -0.624825   0.053995
 H  -5.352446   0.309397  -0.035853
 N  -3.618382  -0.787028   0.059472
 C  -2.859241   0.253998   0.045001
 H  -3.264474   1.267685   0.027031
 H   4.148296  -8.681568   1.168557
 C   4.678212  -7.897262   0.640358
 C   5.864262  -8.184616  -0.032976
 H   6.251964  -9.197013  -0.039882
 C   6.557618  -7.165272  -0.687106
 H   7.484523  -7.384653  -1.204559
 C   6.064685  -5.865027  -0.672714
 H   6.597671  -5.058104  -1.160405
 C   4.862708  -5.573422  -0.018194
 C   4.396878  -4.148012  -0.038744
 C   4.177047  -6.597261   0.647405
 H   3.273451  -6.383335   1.207648
 O   5.157175  -3.204300  -0.141045
 N   3.024657  -3.989411   0.055130
 H   2.408258  -4.790009  -0.034708
 N   2.490242  -2.740006   0.060389
 C   1.209105  -2.603224   0.045494
 H   0.533928  -3.461079   0.027583






