%nproc=15
%mem=70GB
%chk=Triazine-TrisPhenyl_BoronicAcid_Boroxine.chk
#P B3LYP/6-311++G(d,p) EmpiricalDispersion=GD3 opt SCF=YQC

Comment

0 1
 C    4.027462051000000    -3.893913718000000    0.310066179000000
 C    2.672148051000000    -4.262318718000000    0.319743179000000
 C    1.678672051000000    -3.300991718000001    0.229140179000000
 C    2.003629051000000    -1.937063718000000    0.160580179000000
 C    3.355470051000000    -1.566913718000000    0.187692179000000
 C    4.354395051000000    -2.527048718000000    0.261396179000000
 C    0.941359051000000    -0.909939718000000    0.077892179000000
 N    1.312939051000000    0.376982282000000    0.037767179000000
 C    0.318010051000000    1.271410282000000    -0.038992821000000
 N    -0.981642949000000    0.947974282000000    -0.075637821000000
 C    -1.260558949000000    -0.362144718000000    -0.031325821000000
 N    -0.332144949000000    -1.325265718000000    0.045418179000000
 C    0.676958051000000    2.706621282000000    -0.083768821000000
 C    -0.317350949000000    3.691753282000000    -0.190296821000000
 C    0.018704051000000    5.034651282000000    -0.245812821000000
 C    1.360665051000000    5.440586282000000    -0.161808821000000
 C    2.359252051000000    4.454275282000000    -0.075031821000000
 C    2.018771051000000    3.109724282000000    -0.036659821000000
 C    -2.682392949000000    -0.770638718000000    -0.066681821000000
 C    -3.700649949000000    0.190456282000000    -0.135975821000000
 C    -5.035099948999999    -0.188277718000000    -0.165449821000000
 C    -5.391426949000000    -1.548090718000000    -0.125807821000000
 C    -4.369830949000000    -2.511469718000000    -0.093439821000000
 C    -3.039347949000000    -2.128166718000000    -0.047251821000000
 H    0.636350051000000    -3.590416718000000    0.220005179000000
 H    2.423007051000000    -5.314639718000000    0.386235179000000
 H    5.392662051000000    -2.220384718000000    0.316972179000000
 H    3.609547051000000    -0.515584718000000    0.158735179000000
 H    -1.353435949000000    3.384405282000000    -0.238761821000000
 H    -0.746394949000000    5.795773282000000    -0.341783821000000
 H    3.403496051000000    4.745260282000000    -0.073396821000000
 H    2.789534051000000    2.352613282000000    0.021499179000000
 H    -3.429036949000000    1.237058282000000    -0.175087821000000
 H    -5.807122949000000    0.567416282000000    -0.254919821000000
 H    -4.647001949000000    -3.558870718000000    -0.092107821000000
 H    -2.256291949000000    -2.873402718000000    -0.005591821000000
 B    5.139041061000000    -4.968658138000000    0.395626376000000
 O    4.820286853000000    -6.316848534000000    0.443921287000000
 B    5.802332141000000    -7.274914387000000    0.519991302000000
 O    6.476437007000000    -4.605354129000000    0.426170499000000
 B    7.467043245000000    -5.554573443000000    0.502142443000000
 O    7.125481363000000    -6.889275320000000    0.548849805000000
 H    5.514972402000000    -8.424199768999999    0.560923704000000
 H    8.606610641000000    -5.229246980000000    0.527771577000000
 B    1.736240338000000    6.942235731000000    -0.206487102000000
 O    3.059942702000000    7.345342633000000    -0.123596450000000
 B    3.399145596000000    8.676323347000000    -0.162602972000000
 O    0.756687282000000    7.915271155000000    -0.329891060000000
 B    1.083985002000000    9.249197549000000    -0.369970230000000
 O    2.407393207999999    9.625782479000000    -0.286007691000000
 H    4.535318682999999    9.006477431000000    -0.090374391000000
 H    0.235689774000000    10.070396788000000    -0.475492864000000
 B    -6.879462491000000    -1.975346164000000    -0.160550033000000
 O    -7.889555139000000    -1.026528738000000    -0.192367015000000
 B    -9.211623964999999    -1.399724089000000    -0.223173234000000
 O    -7.233027594000000    -3.315697690000000    -0.160139510000000
 B    -8.551702626999999    -3.700725928999999    -0.190785466000000
 O    -9.538674742000000    -2.738869793000000    -0.222313448000000
 H    -10.064900886000000    -0.577341716000000    -0.249888352000000
 H    -8.839318928999999    -4.850675400000000    -0.189742848000000




