%nproc=15
%mem=70GB
%chk=Triazine-TrisPhenyl_Aldehyde_Imine_freq.chk
#P B3LYP/6-311++G(d,p) EmpiricalDispersion=GD3 freq(noraman) SCF=YQC

Restart from Triazine-TrisPhenyl_Aldehyde_Imine.log

0 1
 C   3.925868   3.998344  -0.027448
 C   2.563167   4.338310  -0.042787
 C   1.594708   3.348974  -0.044993
 C   1.957977   1.991253  -0.030752
 C   3.316349   1.649963  -0.015662
 C   4.286375   2.643720  -0.013879
 C   0.918921   0.935060  -0.031095
 N   1.322310  -0.342564  -0.031234
 C   0.350151  -1.263339  -0.031174
 N  -0.957995  -0.973873  -0.030991
 C  -1.269324   0.328437  -0.030899
 N  -0.364570   1.316595  -0.031004
 C   0.745329  -2.691281  -0.030656
 C  -0.229362  -3.697078  -0.014923
 C   0.146299  -5.034016  -0.012885
 C   1.499707  -5.399054  -0.026942
 C   2.475400  -4.388850  -0.042927
 C   2.102789  -3.055485  -0.045332
 C  -2.703541   0.700184  -0.030265
 C  -3.697680  -0.293308  -0.044910
 C  -5.038712   0.050688  -0.042471
 C  -5.425705   1.400778  -0.026497
 C  -4.432868   2.390336  -0.012423
 C  -3.087218   2.047192  -0.014495
 H   0.544578   3.608565  -0.057007
 H   2.288218   5.385657  -0.053028
 H   5.336345   2.369223  -0.002153
 H   3.596665   0.605313  -0.005026
 H  -1.274229  -3.417582  -0.003990
 H  -0.616381  -5.806087  -0.000685
 H   3.519905  -4.674382  -0.053576
 H   2.852637  -2.275822  -0.057821
 H  -3.397373  -1.332520  -0.057418
 H  -5.808251  -0.711106  -0.053110
 H  -4.720159   3.436874  -0.000214
 H  -2.322726   2.812319  -0.003586
 C   7.761854   9.177428   0.077167
 C   6.659249   9.326336  -0.766202
 C   7.853607   8.053963   0.897858
 C   6.864181   7.074718   0.865228
 C   5.761932   7.212304   0.005933
 C   5.657443   8.362509  -0.789891
 C   4.976428   5.022696  -0.024074
 N   4.719590   6.272551  -0.058316
 H   6.574908   10.202963  -1.398730
 H   8.694019   7.943170   1.574214
 H   6.923477   6.219782   1.529132
 H   4.788940   8.473529  -1.428272
 H   6.008660   4.646190  -0.006034
 H   8.533569   9.937928   0.105912
 C   4.067518  -11.310390   0.077041
 C   4.747264  -10.430031  -0.766818
 C   3.049102  -10.828067   0.898209
 C   2.695670  -9.481602   0.865591
 C   3.365404  -8.595905   0.005790
 C   4.413357  -9.080558  -0.790524
 C   1.861666  -6.821009  -0.023331
 N   3.072513  -7.223381  -0.058544
 H   5.548307  -10.795334  -1.399718
 H   2.533343  -11.500427   1.574929
 H   1.925953  -9.105436   1.529842
 H   4.943357  -8.383978  -1.429296
 H   1.019582  -7.526785  -0.004185
 H   4.340373  -12.358938   0.105796
 C  -11.829070   2.132635   0.076381
 C  -11.406280   1.103789  -0.767358
 C  -10.902381   2.773508   0.897767
 C  -9.559555   2.406450   0.865465
 C  -9.127140   1.383576   0.005805
 C  -10.070624   0.718293  -0.790722
 C  -6.838125   1.798338  -0.023000
 N  -7.792053   0.950947  -0.058300
 H  -12.122985   0.592672  -1.400423
 H  -11.226991   3.556336   1.574400
 H  -8.849093   2.885035   1.529848
 H  -9.732165  -0.088983  -1.429396
 H  -7.028235   2.880500  -0.003942
 H  -12.873585   2.420569   0.104879






