%nproc=15
%mem=70GB
%chk=F_Aldehyde_Benzobisoxazole.chk
#P B3LYP/6-311++G(d,p) EmpiricalDispersion=GD3 opt SCF=YQC NoSymm

Comment

0 1
 F    1.342850000000000    -2.363239000000000    -0.181050000000000
 C    0.684160000000000    -1.200169000000000    -0.092040000000000
 C    -0.709070000000000    -1.188689000000000    -0.034700000000000
 F    -1.391880000000000    -2.340709000000000    -0.068500000000000
 C    -1.404610000000000    0.011571000000000    0.057810000000000
 C    -0.684160000000000    1.200171000000000    0.092040000000000
 F    -1.342850000000000    2.363241000000000    0.181050000000000
 C    0.709070000000000    1.188691000000000    0.034700000000000
 F    1.391880000000000    2.340711000000000    0.068500000000000
 C    1.404610000000000    -0.011579000000000    -0.057810000000000
 H    -8.234157263000000    -1.114176616000000    0.265325375000000
 C    -7.279130723000000    -0.594085854000000    0.213252130000000
 C    -7.262965132000000    0.802483847000000    0.100693061000000
 H    -8.203209296000001    1.349576740000000    0.066457770000000
 C    -6.053310712000000    1.510786145000000    0.030261893000000
 H    -6.036342159000000    2.591250550000000    -0.057524999000000
 C    -4.858158211000000    0.781734532000000    0.073750900000000
 N    -3.549820833000000    1.188880224000000    0.022503482000000
 C    -4.917861138000000    -0.597116102000000    0.184647837000000
 O    -3.639333394000000    -1.070399509000000    0.202510110000000
 C    -6.092141040000000    -1.335993186000000    0.259230433000000
 H    -6.084235098000000    -2.414995251000000    0.345103576000000
 C    -2.864706988000000    0.059922702000000    0.098100781000000
 H    8.234157263000000    1.114176616000000    -0.265325375000000
 C    7.279130723000000    0.594085854000000    -0.213252130000000
 C    7.262965132000000    -0.802483847000000    -0.100693061000000
 H    8.203209296000001    -1.349576740000000    -0.066457770000000
 C    6.053310712000000    -1.510786145000000    -0.030261893000000
 H    6.036342159000000    -2.591250550000000    0.057524999000000
 C    4.858158211000000    -0.781734532000000    -0.073750900000000
 N    3.549820833000000    -1.188880224000000    -0.022503482000000
 C    4.917861138000000    0.597116102000000    -0.184647837000000
 O    3.639333394000000    1.070399509000000    -0.202510110000000
 C    6.092141040000000    1.335993186000000    -0.259230433000000
 H    6.084235098000000    2.414995251000000    -0.345103576000000
 C    2.864706988000000    -0.059922702000000    -0.098100781000000




