%nproc=15
%mem=70GB
%chk=Adamantane_PrimaryAmine_Imine_freq.chk
#P B3LYP/6-311++G(d,p) EmpiricalDispersion=GD3 freq(noraman) SCF=YQC

Restart from Adamantane_PrimaryAmine_Imine-1.log

0 1
 C  -0.000000   0.000000  -1.774494
 C   0.000000  -0.000000   1.775042
 H   0.254114  -0.844060   2.421803
 H  -0.254113   0.844060   2.421803
 C   0.359900  -1.217420  -0.896683
 C  -0.359901   1.217420  -0.896682
 C   1.217401   0.359923   0.897217
 C  -1.217401  -0.359923   0.897217
 C  -0.849916  -1.558778   0.003269
 C   0.849916   1.558778   0.003269
 C   1.558744  -0.849923  -0.002733
 C  -1.558744   0.849923  -0.002732
 H  -1.689430  -1.838683  -0.639810
 H   1.689430   1.838683  -0.639811
 H   1.838622  -1.689416   0.640381
 H  -1.838621   1.689416   0.640382
 H  -0.596139  -2.430691   0.615022
 H   0.596140   2.430691   0.615022
 H   2.430660  -0.596209  -0.614519
 H  -2.430660   0.596209  -0.614518
 H   0.844068   0.254078  -2.421250
 H  -0.844069  -0.254078  -2.421250
 N   0.540116  -2.352861  -1.800424
 C   1.629393  -3.002587  -1.859178
 C   1.816539  -4.148740  -2.769882
 C   3.041655  -4.826482  -2.773711
 C   3.249626  -5.913588  -3.620727
 C   2.231476  -6.332669  -4.474290
 C   1.005231  -5.660917  -4.477257
 C   0.797260  -4.577820  -3.633022
 H   2.504842  -2.761708  -1.244048
 H   3.835465  -4.499825  -2.108847
 H   4.202537  -6.430608  -3.614456
 H   2.389546  -7.177677  -5.135141
 H   0.212921  -5.986390  -5.142303
 H  -0.146771  -4.046857  -3.624576
 N  -0.540117   2.352861  -1.800423
 C  -1.629394   3.002587  -1.859177
 C  -1.816540   4.148740  -2.769881
 C  -3.041656   4.826482  -2.773709
 C  -3.249627   5.913589  -3.620725
 C  -2.231478   6.332669  -4.474288
 C  -1.005233   5.660917  -4.477256
 C  -0.797261   4.577820  -3.633022
 H  -2.504843   2.761708  -1.244047
 H  -3.835466   4.499825  -2.108846
 H  -4.202538   6.430609  -3.614454
 H  -2.389547   7.177678  -5.135140
 H  -0.212922   5.986391  -5.142303
 H   0.146769   4.046857  -3.624576
 N   2.352778   0.540199   1.801013
 C   3.002239   1.629646   1.860071
 C   4.149023   1.816499   2.770029
 C   4.826858   3.041570   2.773671
 C   5.914451   3.249326   3.620110
 C   6.333992   2.230982   4.473230
 C   5.662182   1.004772   4.476353
 C   4.578579   0.797023   3.632711
 H   2.761426   2.505048   1.244847
 H   4.499839   3.835526   2.109159
 H   6.431508   4.202218   3.613725
 H   7.179395   2.388875   5.133618
 H   5.987994   0.212317   5.141063
 H   4.047543  -0.146974   3.624427
 N  -2.352778  -0.540199   1.801013
 C  -3.002238  -1.629646   1.860071
 C  -4.149022  -1.816500   2.770030
 C  -4.826857  -3.041570   2.773672
 C  -5.914450  -3.249327   3.620111
 C  -6.333991  -2.230982   4.473231
 C  -5.662181  -1.004773   4.476354
 C  -4.578579  -0.797023   3.632712
 H  -2.761425  -2.505048   1.244848
 H  -4.499838  -3.835527   2.109160
 H  -6.431507  -4.202218   3.613726
 H  -7.179394  -2.388876   5.133619
 H  -5.987993  -0.212318   5.141064
 H  -4.047542   0.146973   3.624428






