%nproc=15
%mem=70GB
%chk=PMDA_BoronicAcid_BoronateEster_freq.chk
#P B3LYP/6-311++G(d,p) EmpiricalDispersion=GD3 freq(noraman) SCF=YQC NoSymm

Restart from PMDA_BoronicAcid_BoronateEster.log

0 1
 C   2.668396  -0.775972  -0.576761
 C   1.220684  -0.486863  -0.358158
 C   0.111068  -1.153608  -0.863665
 H   0.194275  -2.015358  -1.513758
 C  -1.113660  -0.629531  -0.467804
 C  -2.488717  -1.091375  -0.818750
 C  -1.220884   0.481330   0.369435
 C  -2.668608   0.770476   0.587964
 C  -0.111274   1.148075   0.874932
 H  -0.194458   2.009839   1.525011
 C   1.113456   0.623972   0.479093
 C   2.488503   1.085723   0.830167
 N  -3.373626  -0.209035  -0.152747
 N   3.373454   0.203500   0.163998
 O  -3.156466   1.648256   1.253059
 O  -2.802000  -2.018086  -1.521537
 O   2.801785   2.012482   1.532881
 O   3.156214  -1.653785  -1.241840
 C  -4.796154  -0.295905  -0.219590
 C   4.795969   0.290299   0.231078
 C  -5.553596   0.865759  -0.387118
 C  -6.938368   0.773683  -0.446247
 H  -5.062481   1.826425  -0.456698
 C  -7.589201  -0.466391  -0.350555
 H  -7.525449   1.676247  -0.572532
 C  -6.804474  -1.618851  -0.187606
 C  -5.419322  -1.541852  -0.116844
 H  -7.286894  -2.586687  -0.111455
 H  -4.823913  -2.436202   0.003732
 C   5.419189   1.536265   0.128775
 C   6.804327   1.613237   0.199875
 H   4.823826   2.430655   0.008277
 C   7.589020   0.460746   0.362724
 H   7.286754   2.581090   0.124005
 C   6.938149  -0.779346   0.458006
 C   5.553397  -0.871411   0.398516
 H   7.525210  -1.681931   0.584232
 H   5.062288  -1.832096   0.467808
 B  -9.122620  -0.559964  -0.422308
 O  -9.974350   0.529269  -0.587165
 O  -9.847514  -1.745410  -0.331292
 C  -11.249055   0.004075  -0.597721
 C  -11.171943  -1.378809  -0.442282
 C  -12.456968   0.659961  -0.734005
 C  -12.298753  -2.177169  -0.415182
 C  -13.608337  -0.137839  -0.708272
 C  -13.530991  -1.524821  -0.552368
 H  -12.503354   1.734718  -0.853968
 H  -12.225347  -3.250276  -0.293946
 H  -14.578812   0.332700  -0.811528
 H  -14.442575  -2.110202  -0.537097
 B   9.122427   0.554242   0.434898
 O   9.974009  -0.535028   0.600323
 O   9.847446   1.739630   0.344073
 C   11.248749  -0.009922   0.611334
 C   11.171797   1.372947   0.455670
 C   12.456559  -0.665874   0.748196
 C   12.298674   2.171224   0.428905
 C   13.607996   0.131840   0.722810
 C   13.530810   1.518805   0.566672
 H   12.502820  -1.740617   0.868338
 H   12.225395   3.244319   0.307492
 H   14.578394  -0.338754   0.826529
 H   14.442441   2.104120   0.551686






