%nproc=15
%mem=70GB
%chk=Pyrene_Aldehyde_Benzobisoxazole.chk
#P B3LYP/6-311++G(d,p) EmpiricalDispersion=GD3 opt SCF=YQC

Comment

0 1
 C    0.000149000000000    3.538221000000000    0.000000000000000
 C    -1.208314000000000    2.825814000000000    0.000000000000000
 C    -1.234523000000000    1.426499000000000    0.000000000000000
 C    0.000173000000000    0.711855000000000    0.000000000000000
 C    1.234878000000000    1.426489000000000    0.000000000000000
 C    1.208633000000000    2.825798000000000    0.000000000000000
 H    -2.147734000000000    3.368891000000000    0.000000000000000
 H    2.148055000000000    3.368886000000000    0.000000000000000
 C    0.000167000000000    -0.711882000000000    0.000000000000000
 C    -1.234536000000000    -1.426518000000000    0.000000000000000
 C    -1.208310000000000    -2.825825000000000    0.000000000000000
 C    0.000175000000000    -3.538236000000000    0.000000000000000
 C    1.208656000000000    -2.825835000000000    0.000000000000000
 C    1.234871000000000    -1.426526000000000    0.000000000000000
 H    -2.147732000000000    -3.368910000000000    0.000000000000000
 H    2.148078000000000    -3.368915000000000    0.000000000000000
 C    2.463326000000000    0.679235000000000    0.000000000000000
 C    2.463326000000000    -0.679271000000000    0.000000000000000
 H    3.399127000000000    1.228117000000000    0.000000000000000
 H    3.399123000000000    -1.228155000000000    0.000000000000000
 C    -2.462978000000000    0.679245000000000    0.000000000000000
 C    -2.462987000000000    -0.679261000000000    0.000000000000000
 H    -3.398774000000000    1.228133000000000    0.000000000000000
 H    -3.398787000000000    -1.228142000000000    0.000000000000000
 H    -1.166883390000000    10.360060788000000    -0.231567383000000
 C    -0.640883511000000    9.408331042000000    -0.178498243000000
 C    0.759129899000000    9.399692073000001    -0.121703714000000
 H    1.302989629000000    10.342380365000000    -0.131560514000000
 C    1.475094805000000    8.194458966999999    -0.052972897000000
 H    2.558324307000000    8.183287169000000    -0.009535152000000
 C    0.750401000000000    6.995899693000000    -0.044510818000000
 N    1.165445671000000    5.690239986000000    0.011446804000000
 C    -0.631978396000000    7.048118192000000    -0.102752338000000
 O    -1.099381508000000    5.767423357000000    -0.085302203000000
 C    -1.378668390000000    8.217920606000000    -0.169472350000000
 H    -2.460126617000000    8.204172184000001    -0.213531876000000
 C    0.038061627000000    4.999060547000000    -0.018838811000000
 H    1.167832069000000    -10.359968893000000    -0.231567383000000
 C    0.641745041000000    -9.408287316999999    -0.178498243000000
 C    -0.758269154000000    -9.399776550000000    -0.121703714000000
 H    -1.302042558000000    -10.342514638999999    -0.131560514000000
 C    -1.474344421000000    -8.194609010000001    -0.052972897000000
 H    -2.557574942000000    -8.183536405000000    -0.009535152000000
 C    -0.749760373000000    -6.995983380000000    -0.044510818000000
 N    -1.164924603000000    -5.690361684000001    0.011446804000000
 C    0.632623799000000    -7.048075293000000    -0.102752338000000
 O    1.099909634000000    -5.767337662000000    -0.085302203000000
 C    1.379420910000000    -8.217809326999999    -0.169472350000000
 H    2.460877873999999    -8.203961873000001    -0.213531876000000
 C    -0.037603856000000    -4.999079012000000    -0.018838811000000




