%nproc=15
%mem=70GB
%chk=Pyrene_Aldehyde_Benzobisoxazole_freq.chk
#P B3LYP/6-311++G(d,p) EmpiricalDispersion=GD3 freq(noraman) SCF=YQC

Restart from Pyrene_Aldehyde_Benzobisoxazole.log

0 1
 C  -3.519104  -0.102679  -0.000005
 C  -2.857502   1.130779  -0.000006
 C  -1.460661   1.192143  -0.000014
 C  -0.710363  -0.020584  -0.000016
 C  -1.390128  -1.275687  -0.000017
 C  -2.786372  -1.296117  -0.000012
 H  -3.433267   2.047964  -0.000006
 H  -3.318313  -2.239752  -0.000014
 C   0.710363   0.020584  -0.000016
 C   1.390128   1.275686  -0.000015
 C   2.786372   1.296117  -0.000009
 C   3.519104   0.102679  -0.000004
 C   2.857502  -1.130780  -0.000008
 C   1.460661  -1.192144  -0.000016
 H   3.318313   2.239751  -0.000010
 H   3.433267  -2.047964  -0.000009
 C  -0.607687  -2.482231  -0.000021
 C   0.750011  -2.442179  -0.000021
 H  -1.129182  -3.433263  -0.000024
 H   1.325699  -3.361566  -0.000024
 C  -0.750011   2.442179  -0.000017
 C   0.607687   2.482230  -0.000017
 H  -1.325699   3.361566  -0.000019
 H   1.129182   3.433263  -0.000019
 H  -10.252807   1.369770   0.000131
 C  -9.335627   0.792676   0.000081
 C  -9.407298  -0.611385  -0.000026
 H  -10.381101  -1.087043  -0.000057
 C  -8.260830  -1.401706  -0.000091
 H  -8.311211  -2.483332  -0.000176
 C  -7.029896  -0.743709  -0.000048
 N  -5.725707  -1.227400  -0.000096
 C  -6.986778   0.656105   0.000056
 O  -5.666919   1.026646   0.000087
 C  -8.111048   1.462678   0.000125
 H  -8.042859   2.542842   0.000208
 C  -4.976078  -0.168936  -0.000005
 H   10.252807  -1.369770   0.000130
 C   9.335627  -0.792675   0.000081
 C   9.407298   0.611385  -0.000024
 H   10.381101   1.087043  -0.000055
 C   8.260829   1.401706  -0.000088
 H   8.311211   2.483332  -0.000172
 C   7.029896   0.743709  -0.000047
 N   5.725706   1.227400  -0.000094
 C   6.986778  -0.656105   0.000055
 O   5.666919  -1.026646   0.000086
 C   8.111048  -1.462678   0.000123
 H   8.042859  -2.542842   0.000204
 C   4.976078   0.168936  -0.000004






