%nproc=15
%mem=70GB
%chk=T-brick_Nitrile_Triazine_freq.chk
#P B3LYP/6-311++G(d,p) EmpiricalDispersion=GD3 freq(noraman) SCF=YQC NoSymm

Restart from T-brick_Nitrile_Triazine.log

0 1
 N   1.093329  -2.468943  -0.558141
 C   0.713782  -1.180679  -0.238682
 C  -0.701134  -1.211691  -0.239651
 N  -1.141107  -2.481312  -0.555285
 C  -1.442792  -0.035403   0.008337
 C  -2.919711  -0.012672   0.022971
 C  -0.690122   1.122490   0.235524
 H  -1.207661   2.045928   0.465633
 C   0.710344   1.132934   0.222810
 H   1.228644   2.060147   0.438353
 C   1.465738  -0.020792  -0.008992
 C   2.942370  -0.019068  -0.016867
 C  -3.621775   1.101543  -0.467748
 C   3.657504   1.005960  -0.656111
 C   3.671881  -1.039213   0.618116
 C  -3.662098  -1.089710   0.535860
 C  -5.047732  -1.045421   0.572512
 H  -3.143902  -1.963519   0.905593
 C   5.059635  -1.040330   0.607883
 H   3.143761  -1.814165   1.162720
 C  -5.741247   0.073323   0.087557
 H  -5.609369  -1.876527   0.978552
 C  -5.007392   1.147066  -0.437301
 H  -3.074793   1.930471  -0.901370
 C   5.044963   1.010166  -0.666947
 H   3.114560   1.793263  -1.165891
 C   5.765787  -0.016361  -0.039453
 H   5.611989  -1.823444   1.110863
 H   5.586657   1.800801  -1.169602
 H  -5.536512   2.007151  -0.826267
 C  -0.059500  -3.206426  -0.746417
 H   2.036481  -2.766593  -0.747858
 C  -0.055733  -4.622862  -1.109539
 C  -1.263071  -5.235339  -1.482348
 C  -1.292233  -6.574169  -1.836548
 H  -2.167243  -4.640345  -1.490385
 C   1.117606  -5.392656  -1.096478
 C  -0.116326  -7.341183  -1.829115
 H  -2.223393  -7.043030  -2.126073
 C   1.089203  -6.732943  -1.452919
 H   2.062849  -4.958235  -0.790544
 H   1.995551  -7.323646  -1.439117
 C  -7.214934   0.118260   0.123222
 N  -7.875599  -0.937388   0.635863
 C  -9.199896  -0.835436   0.640552
 N  -7.833937   1.213535  -0.357732
 C  -9.160615   1.193134  -0.297228
 N  -9.912258   0.201343   0.189610
 H  -9.684020   2.065369  -0.679635
 H  -9.756407  -1.674414   1.049667
 C   7.242196  -0.016960  -0.055534
 N   7.873837   0.997405  -0.673844
 C   9.201395   0.939812  -0.653405
 N   7.886058  -1.032309   0.548897
 C   9.213037  -0.974650   0.501830
 N   9.938360  -0.017381  -0.082905
 H   9.758274  -1.781661   0.983557
 H   9.736844   1.746557  -1.146368
 C  -0.147184  -8.768307  -2.208803
 N   1.007236  -9.459156  -2.186108
 C   0.913465  -10.737458  -2.537523
 N  -1.327925  -9.308955  -2.559062
 C  -1.290308  -10.595682  -2.889781
 N  -0.203793  -11.372882  -2.901442
 H  -2.230691  -11.057810  -3.177159
 H   1.831004  -11.319345  -2.527883






