%nproc=15
%mem=70GB
%chk=2_Phenyl_BoronicAcid_BoronateEster.chk
#P B3LYP/6-311++G(d,p) EmpiricalDispersion=GD3 opt SCF=YQC

Comment

0 1
 C    -0.000013000000000    -1.415145000000000    0.000000000000000
 C    0.000013000000000    1.415145000000000    0.000000000000000
 C    -1.206999000000000    -0.694755000000000    0.000000000000000
 C    1.206999000000000    0.694755000000000    0.000000000000000
 C    -1.206984000000000    0.694770000000000    0.000000000000000
 C    1.206984000000000    -0.694770000000000    0.000000000000000
 H    2.148535000000000    -1.233078000000000    0.000000000000000
 H    -2.148535000000000    1.233078000000000    0.000000000000000
 H    2.148565000000000    1.233036000000000    0.000000000000000
 H    -2.148565000000000    -1.233036000000000    0.000000000000000
 B    -0.000034114000000    -2.953682000000000    -0.000000000000000
 O    -1.146288547000000    -3.745073544000000    0.000000000000000
 O    1.146188453000000    -3.745108455000000    -0.000000000000000
 C    -0.696981657000000    -5.047713171000000    -0.000000000000000
 C    0.696841343000000    -5.047736828000000    -0.000000000000000
 C    -1.429861533000000    -6.218735731000000    -0.000000000000000
 C    1.429681467000000    -6.218784267000000    -0.000000000000000
 C    -0.699164819000000    -7.413902134000000    -0.000000000000000
 C    0.698942181000000    -7.413925864000000    -0.000000000000000
 H    -2.512204309000000    -6.205559361000000    0.000000000000000
 H    2.512023690000000    -6.205648638000000    -0.000000000000000
 H    -1.231102840000000    -8.357826104999999    -0.000000000000000
 H    1.230850159000000    -8.357866893000001    -0.000000000000000
 B    0.000034114000000    2.953682000000000    -0.000000000000000
 O    1.146288547000000    3.745073544000000    0.000000000000000
 O    -1.146188453000000    3.745108455000000    -0.000000000000000
 C    0.696981657000000    5.047713171000000    -0.000000000000000
 C    -0.696841343000000    5.047736828000000    -0.000000000000000
 C    1.429861533000000    6.218735731000000    -0.000000000000000
 C    -1.429681467000000    6.218784267000000    -0.000000000000000
 C    0.699164819000000    7.413902134000000    -0.000000000000000
 C    -0.698942181000000    7.413925864000000    -0.000000000000000
 H    2.512204309000000    6.205559361000000    0.000000000000000
 H    -2.512023690000000    6.205648638000000    -0.000000000000000
 H    1.231102840000000    8.357826104999999    -0.000000000000000
 H    -1.230850159000000    8.357866893000001    -0.000000000000000




