%nproc=15
%mem=70GB
%chk=TetraPhenylMethane_Ketoenamine_Ketoenamine_freq.chk
#P B3LYP/6-311++G(d,p) EmpiricalDispersion=GD3 freq(noraman) SCF=YQC NoSymm

Restart from TetraPhenylMethane_Ketoenamine_Ketoenamine-1.log

0 1
 C  -0.000006   0.000001   0.001768
 C  -0.334411  -3.266856  -2.897167
 C  -3.278940   0.332002   2.887321
 C   0.334407   3.266857  -2.897168
 C   3.278934  -0.332003   2.887314
 C  -1.408778  -2.958174  -2.058584
 C  -2.950605   1.415093   2.067672
 C   1.408764   2.958188  -2.058569
 C   2.950586  -1.415098   2.067675
 C  -1.315413  -1.940173  -1.113866
 C  -1.935144   1.319102   1.120510
 C   1.315396   1.940188  -1.113851
 C   1.935122  -1.319107   1.120516
 C  -0.136730  -1.205232  -0.961762
 C  -1.205821   0.137326   0.964501
 C   0.136719   1.205235  -0.961762
 C   1.205809  -0.137326   0.964501
 C   0.935632  -1.508479  -1.813869
 C  -1.510905  -0.934779   1.816196
 C  -0.935634   1.508469  -1.813885
 C   1.510906   0.934785   1.816183
 C   0.844686  -2.519866  -2.758562
 C  -2.533033  -0.847867   2.749725
 C  -0.844685   2.519855  -2.758579
 C   2.533037   0.847873   2.749709
 H  -2.323502  -3.528761  -2.161348
 H  -3.503684   2.338465   2.187366
 H   2.323484   3.528784  -2.161320
 H   3.503658  -2.338473   2.187376
 H  -2.177045  -1.720607  -0.498351
 H  -1.711159   2.182168   0.508520
 H   2.177022   1.720631  -0.498322
 H   1.711127  -2.182176   0.508535
 H   1.852563  -0.936228  -1.739354
 H  -0.928272  -1.846084   1.754222
 H  -1.852561   0.936209  -1.739382
 H   0.928283   1.846096   1.754201
 H   1.707200  -2.728854  -3.378778
 H  -2.722919  -1.699170   3.391237
 H  -1.707192   2.728834  -3.378808
 H   2.722934   1.699180   3.391211
 C  -0.501566  -4.380483  -3.886898
 O  -1.463922  -5.161193  -3.757111
 C   0.440449  -4.514816  -4.977136
 C   0.358594  -5.521384  -5.903444
 H   1.229211  -3.789733  -5.108074
 N  -0.584494  -6.486471  -5.908142
 H   1.084942  -5.557260  -6.707181
 C  -0.708435  -7.559082  -6.802805
 H  -1.276127  -6.378017  -5.161941
 C   0.302862  -7.926919  -7.700608
 C  -1.900388  -8.298124  -6.777775
 C   0.108511  -9.000991  -8.564927
 H   1.246366  -7.396523  -7.720395
 C  -1.078592  -9.731003  -8.543456
 H   0.900316  -9.273872  -9.253511
 C  -2.079030  -9.373882  -7.639282
 H  -2.684889  -8.017995  -6.082911
 H  -1.219684  -10.568323  -9.216215
 H  -3.007350  -9.932764  -7.605686
 C  -4.384667   0.503678   3.885291
 O  -4.796160   1.652558   4.136510
 C  -4.961960  -0.662744   4.517814
 C  -5.960231  -0.577156   5.452764
 H  -4.633972  -1.652329   4.238121
 N  -6.508401   0.576614   5.887579
 H  -6.363505  -1.489294   5.877319
 C  -7.506747   0.738278   6.858873
 H  -6.130996   1.404104   5.418725
 C  -7.913813  -0.293018   7.716075
 C  -8.108043   2.000124   6.976067
 C  -8.916311  -0.062421   8.654298
 H  -7.445049  -1.267814   7.672009
 C  -9.517513   1.190062   8.765859
 H  -9.220182  -0.870010   9.310826
 C  -9.101398   2.220512   7.922663
 H  -7.794411   2.801653   6.315820
 H  -10.293592   1.362202   9.501860
 H  -9.554950   3.202294   7.997880
 C   0.501564   4.380484  -3.886898
 O   1.463908   5.161207  -3.757096
 C  -0.440434   4.514803  -4.977153
 C  -0.358576   5.521372  -5.903460
 H  -1.229182   3.789708  -5.108105
 N   0.584498   6.486473  -5.908139
 H  -1.084908   5.557237  -6.707211
 C   0.708442   7.559085  -6.802801
 H   1.276118   6.378030  -5.161924
 C  -0.302842   7.926906  -7.700625
 C   1.900383   8.298146  -6.777745
 C  -0.108489   9.000981  -8.564941
 H  -1.246337   7.396495  -7.720432
 C   1.078602   9.731011  -8.543444
 H  -0.900283   9.273849  -9.253542
 C   2.079027   9.373906  -7.639249
 H   2.684873   8.018030  -6.082864
 H   1.219696   10.568333  -9.216201
 H   3.007337   9.932803  -7.605633
 C   4.384663  -0.503680   3.885280
 O   4.796152  -1.652561   4.136502
 C   4.961959   0.662741   4.517803
 C   5.960231   0.577153   5.452754
 H   4.633972   1.652327   4.238111
 N   6.508400  -0.576616   5.887570
 H   6.363506   1.489291   5.877307
 C   7.506746  -0.738279   6.858864
 H   6.130994  -1.404107   5.418718
 C   7.913812   0.293017   7.716064
 C   8.108042  -2.000126   6.976059
 C   8.916310   0.062421   8.654288
 H   7.445049   1.267813   7.671998
 C   9.517513  -1.190062   8.765850
 H   9.220182   0.870011   9.310814
 C   9.101397  -2.220512   7.922656
 H   7.794410  -2.801655   6.315813
 H   10.293591  -1.362201   9.501851
 H   9.554949  -3.202294   7.997874






