%nproc=15
%mem=70GB
%chk=N-TrisPhenyl_AmineBorane_Borazine_freq.chk
#P B3LYP/6-311++G(d,p) EmpiricalDispersion=GD3 freq(noraman) SCF=YQC

Restart from N-TrisPhenyl_AmineBorane_Borazine.log

0 1
 N   0.000010   0.001758   0.000613
 C   1.238279   0.694188   0.000648
 C  -1.219404   0.726684   0.000356
 C  -0.018753  -1.417130   0.000357
 C  -1.370979   1.873261  -0.789522
 C   2.305053   0.253213  -0.792427
 C  -0.928505  -2.120784  -0.798584
 C  -2.299090   0.311556   0.789916
 C  -2.562187   2.589417  -0.776777
 H  -0.544142   2.210688  -1.402490
 C   1.421402   1.834189   0.793344
 C   3.521839   0.924983  -0.779577
 H   2.181541  -0.629483  -1.407939
 C   0.871984  -2.144845   0.799184
 C  -0.954342  -3.510453  -0.785996
 H  -1.627574  -1.572612  -1.418355
 C  -3.497744   1.015148   0.776673
 H  -2.200154  -0.575899   1.403016
 C  -3.644413   2.167267  -0.000199
 H  -2.658242   3.483667  -1.381199
 C   2.631062   2.518709   0.780392
 H   0.604798   2.191517   1.408758
 C   3.700311   2.070454   0.000448
 H   4.342837   0.561842  -1.386495
 C   0.861111  -3.534711   0.786105
 H   1.585237  -1.615539   1.419183
 C  -0.056035  -4.237066  -0.000102
 H  -1.675003  -4.040416  -1.397563
 H  -4.329237   0.671882   1.380860
 H   2.751865   3.408326   1.387202
 H   1.567492  -4.083729   1.397514
 N  -4.876618   2.899236  -0.000369
 B  -5.463182   3.316092   1.248469
 B  -5.522789   3.215326  -1.249421
 H  -4.927016   3.070029   2.281511
 N  -6.694696   4.039835   1.212597
 H  -5.049579   2.862952  -2.282421
 N  -6.747589   3.950424  -1.213801
 B  -7.369518   4.380055  -0.000655
 H  -7.096018   4.335281   2.089765
 H  -7.198732   4.161688  -2.091073
 H  -8.393912   4.988407  -0.000721
 N   4.951407   2.769686   0.000403
 B   5.608585   3.063656   1.249129
 B   5.545515   3.176451  -1.248182
 H   5.128784   2.719449   2.281838
 N   6.852222   3.766403   1.213417
 H   5.000526   2.948815  -2.280834
 N   6.795745   3.867365  -1.212456
 B   7.482257   4.184606   0.000463
 H   7.310930   3.962036   2.090393
 H   7.202558   4.155855  -2.089410
 H   8.522320   4.765766   0.000409
 N  -0.074964  -5.670093  -0.000404
 B  -0.154599  -6.386496   1.247799
 B  -0.013752  -6.387778  -1.248886
 H  -0.218027  -5.799115   2.280334
 N  -0.166103  -7.814861   1.211802
 H   0.065689  -5.801810  -2.281114
 N  -0.039215  -7.815965  -1.213499
 B  -0.112518  -8.569403  -0.001019
 H  -0.229585  -8.310107   2.088429
 H   0.011702  -8.312318  -2.090321
 H  -0.127980  -9.760710  -0.001294






