%nproc=15
%mem=70GB
%chk=ETTA_PrimaryAmine_Imine_freq.chk
#P B3LYP/6-311++G(d,p) EmpiricalDispersion=GD3 freq(noraman) SCF=YQC

Restart from ETTA_PrimaryAmine_Imine.log

0 1
 C   0.021549  -0.682127  -0.493471
 C  -0.021453   0.681955  -0.493499
 C  -1.201402  -1.518917  -0.357479
 C  -2.159914  -1.257845   0.632007
 H  -2.015686  -0.414914   1.297013
 C  -3.295588  -2.046267   0.761066
 H  -4.035979  -1.804445   1.515149
 C  -3.513316  -3.128947  -0.106991
 C  -2.568469  -3.383175  -1.112145
 H  -2.747008  -4.204784  -1.795919
 C  -1.420952  -2.610238  -1.213372
 H  -0.687688  -2.838385  -1.978635
 C  -1.294601   1.439691  -0.632644
 C  -2.231624   1.118946  -1.628228
 H  -2.028266   0.292195  -2.297746
 C  -3.403780   1.845054  -1.772410
 H  -4.113544   1.602734  -2.554491
 C  -3.702413   2.900025  -0.897171
 C  -2.756725   3.248909   0.080878
 H  -2.937961   4.103569   0.722835
 C  -1.569668   2.536084   0.197302
 H  -0.839732   2.833222   0.941906
 C   1.294677  -1.439870  -0.632618
 C   1.569867  -2.536101   0.197514
 H   0.840055  -2.833069   0.942305
 C   2.756898  -3.248957   0.081047
 H   2.938266  -4.103487   0.723140
 C   3.702436  -2.900274  -0.897217
 C   3.403711  -1.845464  -1.772600
 H   4.113360  -1.603277  -2.554827
 C   2.231577  -1.119320  -1.628379
 H   2.028142  -0.292698  -2.298033
 C   1.201485   1.518751  -0.357553
 C   2.159881   1.257905   0.632100
 H   2.015575   0.415135   1.297292
 C   3.295537   2.046366   0.761133
 H   4.035829   1.804725   1.515372
 C   3.513364   3.128851  -0.107129
 C   2.568656   3.382845  -1.112473
 H   2.747292   4.204298  -1.796410
 C   1.421164   2.609876  -1.213683
 H   0.688017   2.837830  -1.979112
 N  -4.653382  -3.944301  -0.050468
 C  -5.141390  -4.297928   1.075114
 C  -6.368549  -5.093436   1.196705
 C  -6.821454  -5.464611   2.470067
 C  -7.983317  -6.218531   2.617772
 C  -8.704720  -6.609367   1.491427
 C  -8.260226  -6.243580   0.217003
 C  -7.102953  -5.491335   0.067760
 H  -4.651411  -4.033765   2.023016
 H  -6.258924  -5.160189   3.347216
 H  -8.324315  -6.499947   3.607583
 H  -9.609639  -7.196151   1.602788
 H  -8.822324  -6.547684  -0.658914
 H  -6.746987  -5.199792  -0.912749
 N  -4.906359   3.594787  -1.085788
 C  -5.585589   3.994127  -0.081188
 C  -6.818072   4.779550  -0.214237
 C  -7.516985   5.159308   0.939711
 C  -8.689039   5.906025   0.845585
 C  -9.174633   6.280420  -0.405747
 C  -8.484038   5.905535  -1.562496
 C  -7.315068   5.162236  -1.470702
 H  -5.285226   3.752768   0.948379
 H  -7.138605   4.866950   1.914315
 H  -9.221348   6.194340   1.744873
 H  -10.086740   6.861579  -0.482644
 H  -8.862535   6.197115  -2.535836
 H  -6.769240   4.864971  -2.357725
 N   4.906321  -3.595173  -1.085836
 C   5.585819  -3.993955  -0.081199
 C   6.818249  -4.779491  -0.214135
 C   7.517507  -5.158541   0.939835
 C   8.689522  -5.905334   0.845812
 C   9.174721  -6.280521  -0.405435
 C   8.483775  -5.906349  -1.562204
 C   7.314847  -5.162970  -1.470514
 H   5.285704  -3.752038   0.948309
 H   7.139431  -4.865568   1.914372
 H   9.222107  -6.193093   1.745115
 H   10.086793  -6.861744  -0.482250
 H   8.861963  -6.198550  -2.535479
 H   6.768752  -4.866248  -2.357555
 N   4.653433   3.944215  -0.050634
 C   5.141192   4.298179   1.074947
 C   6.368315   5.093742   1.196575
 C   6.820884   5.465372   2.469922
 C   7.982699   6.219360   2.617661
 C   8.704388   6.609807   1.491364
 C   8.260231   6.243560   0.216955
 C   7.103005   5.491248   0.067678
 H   4.651000   4.034300   2.022819
 H   6.258133   5.161250   3.347033
 H   8.323436   6.501132   3.607460
 H   9.609270   7.196642   1.602752
 H   8.822554   6.547358  -0.658924
 H   6.747298   5.199352  -0.912820






