%nproc=15
%mem=70GB
%chk=ETTA_PrimaryAmine_Imine.chk
#P B3LYP/6-311++G(d,p) EmpiricalDispersion=GD3 opt SCF=YQC

Comment

0 1
 C    -0.673043696000000    -0.061281087000000    0.099838696000000
 C    0.676216304000000    0.084438913000000    -0.077921304000000
 C    -1.445563696000000    0.859668913000000    0.987758696000000
 C    -1.208593696000000    0.910808913000000    2.368608696000000
 H    -0.435593696000000    0.291168913000000    2.815748696000000
 C    -1.956453696000000    1.762468913000000    3.184708696000000
 H    -1.756043696000000    1.803278913000000    4.251888696000000
 C    -2.958213696000000    2.558248913000000    2.631708696000000
 C    -3.215433696000000    2.502618913000000    1.263248696000000
 H    -4.001643696000000    3.116068913000000    0.831638696000000
 C    -2.465153696000000    1.655188913000000    0.445338696000000
 H    -2.681203696000000    1.618718913000000    -0.619611304000000
 C    1.423956304000000    1.217358913000000    0.545288696000000
 C    1.186576304000000    2.544388913000000    0.160958696000000
 H    0.432056304000000    2.771628913000000    -0.587751304000000
 C    1.910456304000000    3.588888913000000    0.739918696000000
 H    1.711366304000000    4.615018913000000    0.443058696000000
 C    2.886286304000000    3.315958913000000    1.697168696000000
 C    3.142086304000000    1.999178913000000    2.075248696000000
 H    3.907026304000000    1.784298913000000    2.816488696000000
 C    2.417466304000000    0.953908913000000    1.499138696000000
 H    2.631376304000000    -0.068851087000000    1.799648696000000
 C    -1.412513696000000    -1.154241087000000    -0.600071304000000
 C    -1.922953696000000    -2.232601087000000    0.134698696000000
 H    -1.770443696000000    -2.283151087000000    1.209878696000000
 C    -2.626883696000000    -3.253351087000000    -0.507091304000000
 H    -3.013833696000000    -4.089711087000000    0.068518696000000
 C    -2.834543696000000    -3.198741087000000    -1.884751304000000
 C    -2.343603696000000    -2.122491087000001    -2.622201304000000
 H    -2.507323696000000    -2.077791087000000    -3.695421304000000
 C    -1.638713696000000    -1.101381087000000    -1.982691304000000
 H    -1.261323696000000    -0.266561087000000    -2.567421304000000
 C    1.439886304000000    -0.894691087000000    -0.907871304000000
 C    1.681336304000000    -2.196721087000000    -0.447761304000000
 H    1.299246304000000    -2.515401087000000    0.518518696000000
 C    2.406656304000000    -3.098111087000000    -1.228831304000000
 H    2.581246304000000    -4.108341087000000    -0.868861304000000
 C    2.903116304000000    -2.703191087000000    -2.470121304000000
 C    2.679966304000000    -1.406181087000000    -2.930431304000000
 H    3.069876304000000    -1.097111087000000    -3.896341304000000
 C    1.955636304000000    -0.502771087000000    -2.150401304000000
 H    1.790596304000000    0.507088913000000    -2.517471304000000
 N    -3.828641029000000    3.371468916000000    3.368481739000000
 C    -4.328556094000000    2.951937865000000    4.465985063000001
 C    -5.190598382000000    3.778947178000000    5.317454245000000
 C    -5.719865552000000    3.230271593000000    6.493483338000000
 C    -6.539278950000000    3.991216907000000    7.323783709000000
 C    -6.837449665000000    5.309532838000000    6.984709632000000
 C    -6.314130644000000    5.864761263000000    5.812787063000001
 C    -5.496568592000000    5.108359189000000    4.984156736000000
 H    -4.146679652000000    1.928665644000000    4.823566260000000
 H    -5.487461766999999    2.203049016000000    6.756417380000000
 H    -6.943491330000000    3.557462872000000    8.231236339000001
 H    -7.475062584000000    5.904556832000000    7.628876453000000
 H    -6.547034623000000    6.890597789000000    5.550263430000001
 H    -5.083650144000000    5.524673772000000    4.073502339000000
 N    3.758975823000000    4.320000973000000    2.135480888000000
 C    3.996098671000000    4.468995999000000    3.381277083000000
 C    4.950997920000000    5.454918287000000    3.899143612000000
 C    5.131085544000000    5.571180289000000    5.284157929000000
 C    6.032359995000000    6.495962720000000    5.806035896000000
 C    6.762419981000000    7.314211651000000    4.946201607000000
 C    6.588488409000000    7.205314471000000    3.562932608000000
 C    5.691273983000000    6.283718442000000    3.040584967000000
 H    3.475812719000000    3.866357176000000    4.139009469000000
 H    4.561470460000000    4.933714653999999    5.953118520000000
 H    6.164354855000000    6.577914066000000    6.878818176000000
 H    7.464776371000000    8.035177903999999    5.349262202000000
 H    7.157186641000000    7.842657361000000    2.895190247000000
 H    5.546006359000000    6.187633373000000    1.971578005000000
 N    -3.724744114000000    -4.105556235000000    -2.473847675000000
 C    -3.556761503000000    -5.362549558000000    -2.324902880000000
 C    -4.490513982000000    -6.360715520000000    -2.857661828000000
 C    -4.215772111000000    -7.722444404000000    -2.672123649000000
 C    -5.084529279000000    -8.693680174000001    -3.163892756000000
 C    -6.237351859000000    -8.311212767000001    -3.846939373000000
 C    -6.518895800000000    -6.954707961000000    -4.037127776000000
 C    -5.654764620999999    -5.984979948000000    -3.547143171000000
 H    -2.681586614000000    -5.764207828000001    -1.795026537000000
 H    -3.317180743000000    -8.019341043000001    -2.140411329000000
 H    -4.862937338999999    -9.744259826000000    -3.014963603000000
 H    -6.915663524000000    -9.064800506999999    -4.231066282000000
 H    -7.416212809000000    -6.658656574000000    -4.568803674000000
 H    -5.859574644000000    -4.930571977000000    -3.686382503000000
 N    3.736944708000000    -3.496649236000000    -3.268218660000000
 C    4.666165092000000    -4.192523160000000    -2.736481994000000
 C    5.527614836000000    -5.095250133000000    -3.507876464000000
 C    6.542412910000000    -5.802205987000000    -2.848625866000000
 C    7.374651798000000    -6.668703397000000    -3.553207632000000
 C    7.199432167000000    -6.835922280000000    -4.925493982000000
 C    6.189768742000000    -6.133967032000000    -5.591363721000000
 C    5.358630963000000    -5.270387089000000    -4.890921218000000
 H    4.878977937000000    -4.135745206000000    -1.659673586000000
 H    6.678449706000000    -5.670797769000000    -1.779720855000000
 H    8.156509244000000    -7.210919441000000    -3.033880008000000
 H    7.845647475000000    -7.509646029000001    -5.476907407000000
 H    6.054672537000000    -6.265069804000000    -6.659101787000000
 H    4.572178222000000    -4.720170847000000    -5.392782832000000




