%nproc=15
%mem=70GB
%chk=2_Phenyl_H_Catechol_BoronateEster_freq.chk
#P B3LYP/6-311++G(d,p) EmpiricalDispersion=GD3 freq(noraman) SCF=YQC

Restart from 2_Phenyl_H_Catechol_BoronateEster.log

0 1
 C  -1.161511  -0.698819  -0.000002
 C  -0.000006  -1.458904  -0.000001
 C   1.161504  -0.698826  -0.000002
 C   1.161517   0.698801  -0.000002
 C   0.000006   1.458879  -0.000001
 C  -1.161510   0.698808  -0.000002
 H  -0.000008  -2.539781  -0.000000
 H   0.000008   2.539758  -0.000000
 B   3.259065  -0.000020  -0.000008
 C   4.795493  -0.000010  -0.000002
 C   5.513256   1.207917   0.000000
 C   5.513289  -1.207916   0.000000
 C   6.905172   1.209106   0.000004
 C   6.905204  -1.209067   0.000004
 C   7.602026   0.000029   0.000006
 O   2.464453   1.145269  -0.000001
 O   2.464448  -1.145304  -0.000001
 H   7.447842   2.147833   0.000005
 H   7.447899  -2.147780   0.000005
 H   4.971821  -2.147682  -0.000002
 H   4.971763   2.147668  -0.000002
 H   8.686572   0.000043   0.000009
 B  -3.259065   0.000009  -0.000008
 C  -4.795493   0.000014  -0.000002
 C  -5.513267  -1.207907   0.000000
 C  -5.513278   1.207927   0.000000
 C  -6.905183  -1.209084   0.000004
 C  -6.905193   1.209090   0.000004
 C  -7.602026   0.000000   0.000006
 O  -2.464458  -1.145285  -0.000001
 O  -2.464444   1.145288  -0.000001
 H  -7.447861  -2.147805   0.000005
 H  -7.447879   2.147807   0.000005
 H  -4.971802   2.147688  -0.000002
 H  -4.971782  -2.147662  -0.000002
 H  -8.686572  -0.000004   0.000009






