%nproc=15
%mem=70GB
%chk=2_Phenyl_H_Catechol_BoronateEster.chk
#P B3LYP/6-311++G(d,p) EmpiricalDispersion=GD3 opt SCF=YQC

Comment

0 1
 C    0.698355000000000    -1.162038000000000    0.000000000000000
 C    1.458232000000000    -0.000028000000000    0.000000000000000
 C    0.698390000000000    1.162000000000000    0.000000000000000
 C    -0.698642000000000    1.162030000000000    0.000000000000000
 C    -1.458528000000000    0.000030000000000    0.000000000000000
 C    -0.698679000000000    -1.161989000000000    0.000000000000000
 H    2.539446000000000    -0.000040000000000    0.000000000000000
 H    -2.539742000000000    0.000043000000000    0.000000000000000
 B    0.000062056000000    3.256717768000000    -0.000009000000000
 C    0.000083889000000    4.792412606000000    -0.000000000000000
 C    -1.208046793000000    5.509848930000000    0.000003000000000
 C    1.208190080000000    5.509920553999999    0.000004000000000
 C    -1.209225334000000    6.901708869000000    0.000010000000000
 C    1.209281499000000    6.901784090000000    0.000010000000000
 C    0.000010218000000    7.598380102999999    0.000013000000000
 O    -1.148162918000000    2.463203244000000    -0.000003000000000
 O    1.148239513000000    2.463150306000000    -0.000002000000000
 H    -2.147928422000000    7.444365449000000    0.000012000000000
 H    2.147954888000000    7.444495524000000    0.000012000000000
 H    2.147881907000000    4.968354524000000    0.000001000000000
 H    -2.147700457000000    4.968224687000000    -0.000000000000000
 H    -0.000021525000000    8.682914580000000    0.000018000000000
 B    -0.000062056000000    -3.256717768000000    -0.000009000000000
 C    -0.000083889000000    -4.792412606000000    -0.000000000000000
 C    1.208046793000000    -5.509848930000000    0.000003000000000
 C    -1.208190080000000    -5.509920553999999    0.000004000000000
 C    1.209225334000000    -6.901708869000000    0.000010000000000
 C    -1.209281499000000    -6.901784090000000    0.000010000000000
 C    -0.000010218000000    -7.598380102999999    0.000013000000000
 O    1.148162918000000    -2.463203244000000    -0.000003000000000
 O    -1.148239513000000    -2.463150306000000    -0.000002000000000
 H    2.147928422000000    -7.444365449000000    0.000012000000000
 H    -2.147954888000000    -7.444495524000000    0.000012000000000
 H    -2.147881907000000    -4.968354524000000    0.000001000000000
 H    2.147700457000000    -4.968224687000000    -0.000000000000000
 H    0.000021525000000    -8.682914580000000    0.000018000000000




