%nproc=15
%mem=70GB
%chk=Adamantane_Hydrazide_Hydrazone.chk
#P B3LYP/6-311++G(d,p) EmpiricalDispersion=GD3 opt SCF=YQC

Comment

0 1
 C    -0.000001000000000    -0.000001000000000    1.760854000000000
 C    -0.000001000000000    -0.000001000000000    -1.760853000000000
 H    0.583501000000000    -0.548807000000000    -2.343561000000000
 H    -0.583501000000000    0.548807000000000    -2.343561000000000
 C    0.925717000000000    -0.871783000000000    0.897399000000000
 C    -0.925717000000000    0.871783000000000    0.897399000000000
 C    -0.871783000000000    -0.925717000000000    -0.897399000000000
 C    0.871783000000000    0.925717000000000    -0.897399000000000
 C    1.773370000000000    0.051568000000000    -0.002829000000000
 C    -1.773370000000000    -0.051569000000000    -0.002829000000000
 C    0.051568000000000    -1.773370000000000    0.002829000000000
 C    -0.051569000000000    1.773370000000000    0.002829000000000
 H    2.340312000000000    0.633966000000000    0.562907000000000
 H    -2.340313000000000    -0.633966000000000    0.562907000000000
 H    0.633966000000000    -2.340313000000000    -0.562907000000000
 H    -0.633966000000000    2.340312000000000    -0.562907000000000
 H    2.368699000000000    -0.498341000000000    -0.571393000000000
 H    -2.368700000000000    0.498341000000000    -0.571393000000000
 H    -0.498341000000000    -2.368700000000000    0.571393000000000
 H    0.498341000000000    2.368699000000000    0.571393000000000
 H    -0.548807000000000    -0.583501000000000    2.343561000000000
 H    0.548807000000000    0.583501000000000    2.343561000000000
 C    1.744815097000000    -1.743518015000000    1.799550568000000
 O    1.173051114000000    -2.427395428000000    2.645641026000000
 N    3.120634826000000    -1.720016000000000    1.611146339000000
 H    3.549882617000000    -1.203023192000000    0.858236349000000
 N    3.921103727000000    -2.449006320000000    2.439680862000000
 C    5.195185052000000    -2.321655944000000    2.254221320000000
 C    6.170992866000000    -3.047496528000000    3.090294144000000
 H    5.606319268000000    -1.657824756000000    1.472697928000000
 C    7.536039522000000    -2.818050544000000    2.895642777000000
 C    8.468631990000000    -3.491378906000000    3.687161875000000
 H    7.884660088000000    -2.118981736000000    2.140891049000000
 C    8.037922590000001    -4.389887846000000    4.664846985000000
 H    9.532144442000000    -3.315818927000000    3.545120223000000
 C    6.674944502000000    -4.618283490000000    4.855802541000000
 H    8.765115611000001    -4.913004356000000    5.281205454000000
 C    5.738743079000000    -3.946657170000000    4.069736892000000
 H    6.338621795000000    -5.317297230000000    5.617510946000000
 H    4.676181292000000    -4.125747850000000    4.224549564000000
 C    -1.744814962000000    1.743518375000000    1.799550344000000
 O    -1.173050962000000    2.427395040000000    2.645641393000000
 N    -3.120634591000000    1.720017536000000    1.611145236000000
 H    -3.549882324000000    1.203025329000000    0.858234801000000
 N    -3.921103426000000    2.449008225000000    2.439679498000000
 C    -5.195184737000000    2.321658942000000    2.254219107000000
 C    -6.170992493000000    3.047500035000000    3.090291558000000
 H    -5.606318996000000    1.657828350000000    1.472695232000000
 C    -7.536039211000000    2.818055220999999    2.895639250000000
 C    -8.468631634999999    3.491384071000000    3.687157984999999
 H    -7.884659865000000    2.118986948000000    2.140887066000000
 C    -8.037922127000000    4.389892334000000    4.664843670000000
 H    -9.532144139000000    3.315825001000000    3.545115602000000
 C    -6.674943974000000    4.618286811000000    4.855800165000000
 H    -8.765115114000000    4.913009225000000    5.281201855000000
 C    -5.738742598000000    3.946659997000000    4.069734882000000
 H    -6.338621183000000    5.317300022000000    5.617509018000000
 H    -4.676180764000000    4.125749765000000    4.224548287000000
 C    -1.664135442000000    -1.885091799000000    -1.731963967000000
 O    -1.351790703000000    -3.073749780000000    -1.729866509000000
 N    -2.719583470000000    -1.354301232000000    -2.462182605000000
 H    -2.993322794000000    -0.386248024000000    -2.382505424000000
 N    -3.440362792000000    -2.169279702000000    -3.283726313000000
 C    -4.359599353000000    -1.593939505000000    -3.989335542000000
 C    -5.203715198000000    -2.360743292000000    -4.926108516000000
 H    -4.543928170000000    -0.506292055000000    -3.929939297000000
 C    -6.132528086000000    -1.679033188000000    -5.717603897000000
 C    -6.929940744000000    -2.392356497000000    -6.614768980000000
 H    -6.241176523000000    -0.600338399000000    -5.650546170000000
 C    -6.800287697000000    -3.778509866000000    -6.717072471000000
 H    -7.652086600000000    -1.869534901000000    -7.237038064000000
 C    -5.873664196000000    -4.456563620000000    -5.924639598000000
 H    -7.421241492000000    -4.332814780000000    -7.416730089000000
 C    -5.072704505000000    -3.748906984000000    -5.028458879000000
 H    -5.771505739000000    -5.535990525000000    -6.004226486000000
 H    -4.348839624000000    -4.281956025000000    -4.414491176000000
 C    1.664135442000000    1.885091799000000    -1.731963967000000
 O    1.351790703000000    3.073749780000000    -1.729866509000000
 N    2.719583470000000    1.354301232000000    -2.462182605000000
 H    2.993322794000000    0.386248024000000    -2.382505424000000
 N    3.440362792000000    2.169279702000000    -3.283726313000000
 C    4.359599353000000    1.593939505000000    -3.989335542000000
 C    5.203715198000000    2.360743292000000    -4.926108516000000
 H    4.543928170000000    0.506292055000000    -3.929939297000000
 C    6.132528086000000    1.679033188000000    -5.717603897000000
 C    6.929940744000000    2.392356497000000    -6.614768980000000
 H    6.241176523000000    0.600338399000000    -5.650546170000000
 C    6.800287697000000    3.778509866000000    -6.717072471000000
 H    7.652086600000000    1.869534901000000    -7.237038064000000
 C    5.873664196000000    4.456563620000000    -5.924639598000000
 H    7.421241492000000    4.332814780000000    -7.416730089000000
 C    5.072704505000000    3.748906984000000    -5.028458879000000
 H    5.771505739000000    5.535990525000000    -6.004226486000000
 H    4.348839624000000    4.281956025000000    -4.414491176000000




