%nproc=15
%mem=70GB
%chk=T-brick_BoronicAcid_BoronateEster.chk
#P B3LYP/6-311++G(d,p) EmpiricalDispersion=GD3 opt SCF=YQC

Comment

0 1
 N    1.048041667000000    -2.362353333000000    -0.827760000000000
 C    0.687191667000000    -1.111843333000000    -0.380820000000000
 C    -0.707988333000000    -1.156633333000000    -0.350020000000000
 N    -1.140578333000000    -2.423203333000000    -0.704650000000000
 C    -1.452748333000000    -0.004173333000000    0.016440000000000
 C    -2.937038333000000    0.018916667000000    0.013290000000000
 C    -0.690808333000000    1.125556667000000    0.389200000000000
 H    -1.190148333000000    2.031256667000000    0.727650000000000
 C    0.707131667000000    1.132496667000000    0.363290000000000
 H    1.218751667000000    2.041706667000000    0.676780000000000
 C    1.457221667000000    0.014596667000000    -0.038090000000000
 C    2.930271667000000    0.035566667000000    -0.088570000000000
 C    -3.644438333000000    1.216186667000000    -0.227900000000000
 C    3.614231667000000    1.150886667000000    -0.607650000000000
 C    3.709801667000000    -1.028743333000000    0.397570000000000
 C    -3.714278333000000    -1.126953333000000    0.257540000000000
 C    -5.114658333000000    -1.083173333000000    0.260860000000000
 H    -3.237768333000000    -2.085023333000000    0.454110000000000
 C    5.107441667000000    -0.993503333000000    0.339110000000000
 H    3.237601667000000    -1.893393333000000    0.858000000000000
 C    -5.778958333000000    0.116916667000000    0.034260000000000
 H    -5.680408333000000    -1.992973333000000    0.442850000000000
 C    -5.043148333000000    1.269606667000000    -0.208850000000000
 H    -3.111798333000000    2.138136667000000    -0.449260000000000
 C    5.011001667000000    1.198966667000000    -0.646670000000000
 H    3.058831667000001    2.004406667000000    -0.992550000000000
 C    5.757241667000000    0.121996667000000    -0.180560000000000
 H    5.688571667000000    -1.831683333000000    0.715280000000000
 H    5.511931667000000    2.079726667000000    -1.040580000000000
 H    -5.551588333000000    2.212836667000000    -0.390060000000000
 C    -0.066158333000000    -3.157953333000000    -0.916690000000000
 H    1.993111667000000    -2.657013333000000    -1.011250000000000
 C    -0.040848333000000    -4.599613333000000    -1.196060000000000
 C    -1.251718333000000    -5.281883333000000    -1.390290000000000
 C    -1.273518333000000    -6.658563333000001    -1.631550000000000
 H    -2.193238333000000    -4.735723333000000    -1.348080000000000
 C    1.151281667000000    -5.339883333000000    -1.242140000000000
 C    -0.081488333000000    -7.375973333000000    -1.679350000000000
 H    -2.223038333000000    -7.167013333000000    -1.777580000000000
 C    1.130121667000000    -6.718103333000000    -1.483600000000000
 H    2.116521667000000    -4.871123333000000    -1.078620000000000
 H    2.060961667000000    -7.279213333000000    -1.512890000000000
 B    -7.317153409000001    0.148043427000000    0.043377710000000
 O    -8.086916797000001    1.289023424000000    -0.170698853000000
 O    -8.129856067000000    -0.960903988000000    0.266832468000000
 C    -9.397676168000000    0.874392450000000    -0.077223163000000
 C    -9.423785619000000    -0.493560407000000    0.188795319000000
 C    -10.554722723999999    1.617345568000000    -0.210154279000000
 C    -10.608288419999999    -1.189122697000000    0.335604607000000
 C    -11.763299019000000    0.924374541000000    -0.063611074000000
 C    -11.789488720000000    -0.447782802000000    0.203225032000000
 H    -10.521292921000001    2.679333424000000    -0.416803126000000
 H    -10.615412053000000    -2.251641983000000    0.542097349000000
 H    -12.697058083000000    1.465523867000000    -0.159537827000000
 H    -12.743175021000001    -0.950733914000000    0.310338901000000
 B    7.294678011000000    0.154568760000000    -0.228774594000000
 O    8.122343067999999    -0.874521351000000    0.214106764000000
 O    8.048698946000000    1.217159176000000    -0.721254082000000
 C    9.409609735000000    -0.436974823000000    -0.010045506000000
 C    9.364836636000000    0.834764237000000    -0.578743746000000
 C    10.603348414999999    -1.080855848000000    0.252274796000000
 C    10.511492705000000    1.528221866000000    -0.914456612000000
 C    11.774175070000000    -0.388842968000000    -0.083319506000000
 C    11.729264358000000    0.886804859000000    -0.653765674000000
 H    10.624967404000000    -2.068675741000000    0.694297399000000
 H    10.463580567999999    2.515483878000000    -1.355654277000000
 H    12.734519559000001    -0.854193269000000    0.104132041000000
 H    12.655434440000001    1.392119042000000    -0.900377351000000
 B    -0.098067675000000    -8.876032513000000    -2.020881380000000
 O    -1.251979794000000    -9.626146948000001    -2.235392345000000
 O    1.038777793000000    -9.669150627000000    -2.157731833000000
 C    -0.817029260000000    -10.904630431999999    -2.509335208000000
 C    0.575748313000000    -10.930778983000000    -2.462118259000000
 C    -1.561962510000000    -12.032629847999999    -2.794113226000000
 C    1.295435710000000    -12.086275761000000    -2.697243756000000
 C    -0.844676492000000    -13.211602220000000    -3.034665366000000
 C    0.552381868000000    -13.237831140999999    -2.987303293000000
 H    -2.643351873000000    -11.999495831999999    -2.827857650000000
 H    2.377107698000000    -12.093755806000001    -2.657658507000000
 H    -1.386374456000000    -14.121948983999999    -3.262223287000000
 H    1.073731985000000    -14.168135010000000    -3.178822296000000




