%nproc=15
%mem=70GB
%chk=T-brick_BoronicAcid_BoronateEster_freq.chk
#P B3LYP/6-311++G(d,p) EmpiricalDispersion=GD3 freq(noraman) SCF=YQC

Restart from T-brick_BoronicAcid_BoronateEster.log

0 1
 N  -1.118855  -0.225923   0.060497
 C  -0.724297  -1.549022   0.071474
 C   0.690000  -1.502845   0.065403
 N   1.115082  -0.188988   0.047371
 C   1.444141  -2.696357   0.030082
 C   2.922464  -2.706240   0.025258
 C   0.703835  -3.883306  -0.007278
 H   1.232300  -4.829038  -0.000208
 C  -0.696966  -3.905901  -0.009816
 H  -1.205475  -4.863203  -0.009007
 C  -1.464148  -2.738098   0.035349
 C  -2.941910  -2.751773   0.038828
 C   3.626101  -3.664662  -0.723719
 C  -3.654166  -3.599679  -0.823775
 C  -3.670353  -1.920107   0.906784
 C   3.659874  -1.773897   0.773994
 C   5.047726  -1.814122   0.783852
 H   3.136379  -1.019193   1.344721
 C  -5.059773  -1.932129   0.904907
 H  -3.139686  -1.293209   1.615345
 C   5.754458  -2.775601   0.042305
 H   5.597756  -1.090354   1.375602
 C   5.014112  -3.698467  -0.714627
 H   3.078429  -4.371594  -1.336322
 C  -5.043267  -3.610956  -0.821565
 H  -3.107998  -4.235762  -1.510944
 C  -5.774719  -2.774997   0.038393
 H  -5.602669  -1.291230   1.591267
 H  -5.574339  -4.268578  -1.501175
 H   5.536036  -4.442254  -1.306966
 C   0.025018   0.548074   0.037740
 H  -2.067086   0.096283  -0.044495
 C   0.003079   2.011074   0.011340
 C   1.200777   2.706290  -0.220959
 C   1.208295   4.092547  -0.255690
 H   2.109497   2.138115  -0.374160
 C  -1.178572   2.740770   0.212860
 C   0.028219   4.832155  -0.061171
 H   2.139441   4.617314  -0.438617
 C  -1.163714   4.129064   0.174759
 H  -2.114937   2.233444   0.418377
 H  -2.084303   4.679283   0.334482
 B   7.288325  -2.812666   0.052838
 O   8.066502  -3.726618  -0.659176
 O   8.100404  -1.938191   0.775934
 C   9.374209  -3.407952  -0.368811
 C   9.394738  -2.320695   0.503718
 C   10.534491  -4.007549  -0.818711
 C   10.576587  -1.778642   0.970194
 C   11.740781  -3.467370  -0.353208
 C   11.761348  -2.377532   0.521582
 H   10.504970  -4.851241  -1.496291
 H   10.578842  -0.934281   1.647570
 H   12.676374  -3.905666  -0.679746
 H   12.712617  -1.985546   0.861427
 B  -7.311034  -2.784999   0.035166
 O  -8.109202  -1.988958   0.854630
 O  -8.096792  -3.589615  -0.787196
 C  -9.409877  -2.310907   0.530727
 C  -9.402223  -3.283754  -0.467366
 C  -10.584807  -1.806981   1.053673
 C  -10.569143  -3.802372  -0.993870
 C  -11.776273  -2.324358   0.528533
 C  -11.768591  -3.299842  -0.472542
 H  -10.577355  -1.051821   1.829159
 H  -10.549715  -4.557836  -1.768835
 H  -12.722946  -1.959009   0.908310
 H  -12.709423  -3.677221  -0.855055
 B   0.040963   6.368670  -0.102274
 O   1.174500   7.145581  -0.328292
 O  -1.081071   7.174168   0.081804
 C   0.742616   8.453624  -0.282537
 C  -0.628623   8.471183  -0.033215
 C   1.472770   9.614869  -0.444820
 C  -1.340133   9.650892   0.066771
 C   0.763440   10.818950  -0.345840
 C  -0.611762   10.836600  -0.095764
 H   2.537443   9.587574  -0.638116
 H  -2.405060   9.651127   0.260717
 H   1.294450   11.755670  -0.466160
 H  -1.127703   11.786758  -0.025673






