%nproc=15
%mem=70GB
%chk=Pyrene_tBu_Catechol_BoronateEster.chk
#P B3LYP/6-311++G(d,p) EmpiricalDispersion=GD3 opt SCF=YQC

Comment

0 1
 C    -2.463128239000000    -0.679251457000000    0.000029144000000
 C    -1.234677239000000    -1.426508457000000    0.000029144000000
 C    0.000025761000000    -0.711872457000000    0.000029144000000
 C    0.000031761000000    0.711864543000000    0.000029144000000
 C    -1.234664239000000    1.426508543000000    0.000029144000000
 C    -2.463119239000000    0.679254543000000    0.000029144000000
 C    1.234736761000000    1.426498543000000    0.000029144000000
 C    1.208491761000000    2.825807543000000    0.000029144000000
 C    0.000007761000000    3.538230543000000    0.000029144000000
 C    -1.208455239000000    2.825823543000000    0.000029144000000
 C    1.234729761000000    -1.426516457000000    0.000029144000000
 C    2.463184761000000    -0.679261457000000    0.000029144000000
 C    2.463184761000000    0.679244543000000    0.000029144000000
 C    1.208514761000000    -2.825825457000000    0.000029144000000
 C    0.000033761000000    -3.538226457000000    0.000029144000000
 C    -1.208451239000000    -2.825815457000000    0.000029144000000
 H    -2.147875239000000    3.368900543000000    0.000029144000000
 H    2.147913761000000    3.368895543000000    0.000029144000000
 H    -2.147873239000000    -3.368900457000001    0.000029144000000
 H    2.147936761000000    -3.368905457000000    0.000029144000000
 C    -0.000077739000000    5.038230543000000    -0.000080841000000
 C    0.000037761000000    -5.038226457000000    0.000029144000000
 C    1.414252761000000    -5.538222457000000    0.000029144000000
 C    -0.707067239000000    -5.538228457000000    1.224774144000000
 C    -0.707067239000000    -5.538228457000000    -1.224715856000000
 C    0.707025261000000    5.538251543000000    -1.224819163000000
 C    -1.414295022000000    5.538220543000000    -0.000074654000000
 C    0.707025544000000    5.538220543000000    1.224670346000000
 H    1.414255761000000    -6.608222457000000    0.000029144000000
 H    1.918654761000000    -5.181554457000000    -0.873621856000000
 H    1.918654761000000    -5.181554457000000    0.873680144000000
 H    -0.707064239000000    -6.608228456999999    1.224774144000000
 H    -0.202665239000000    -5.181560456999999    2.098425144000000
 H    -1.715874239000000    -5.181564457000000    1.224774144000000
 H    -0.707064239000000    -6.608228456999999    -1.224715856000000
 H    -1.715874239000000    -5.181564457000000    -1.224715856000000
 H    -0.202665239000000    -5.181560456999999    -2.098366856000000
 H    0.707017761000000    6.608251543000000    -1.224806173000000
 H    1.715833221000000    5.181592543000000    -1.224823805000000
 H    0.202625301000000    5.181592543000000    -2.098474805000000
 H    0.707017544000000    6.608220543000000    1.224684203000000
 H    0.202625544000000    5.181538543000000    2.098316773000000
 H    1.715833504000000    5.181560543000000    1.224665704000000
 H    -1.414303022000000    6.608220543000000    -0.000060797000000
 H    -1.918694982000000    5.181560543000000    -0.873730296000000
 H    -1.918695022000000    5.181538543000000    0.873571773000000
 B    -4.557841507000000    0.000069042000000    0.000032536000000
 C    -6.093536344000000    0.000094865000000    0.000050622000000
 C    -6.810975808000000    -1.208033953000000    0.000060248000000
 C    -6.811041154000000    1.208202921000000    0.000056484000000
 C    -8.202835750000000    -1.209208876000000    0.000075485000000
 C    -8.202904687000000    1.209297957000000    0.000070716000000
 C    -8.899503841000000    0.000028486000000    0.000080222000000
 O    -3.764329967000000    -1.148157993000000    0.000036106000000
 O    -3.764271061000000    1.148244437000000    0.000032577000000
 H    -8.745494769000000    -2.147910554000000    0.000082547000000
 H    -8.745613681000000    2.147972756000000    0.000074076000000
 H    -6.269472682000000    2.147893341000000    0.000048427000000
 H    -6.269354006000000    -2.147689024000000    0.000055897000000
 H    -9.984038319000000    -0.000000439000000    0.000091638000000
 B    4.557902529000001    -0.000081835000000    0.000032536000000
 C    6.093597366000000    -0.000111969000000    0.000050621000000
 C    6.811040221000000    1.208014835000000    0.000060248000000
 C    6.811098785000000    -1.208222039000000    0.000056483000000
 C    8.202900165999999    1.209185852000000    0.000075484000000
 C    8.202962314000001    -1.209320982000000    0.000070715000000
 C    8.899564863000000    -0.000053466000000    0.000080221000000
 O    3.764394211000000    1.148147427000000    0.000036106000000
 O    3.764328860000000    -1.148255003000000    0.000032577000000
 H    8.745561820000001    2.147886006000000    0.000082546000000
 H    8.745668673999999    -2.147997304000000    0.000074075000000
 H    6.269527675000000    -2.147910939000000    0.000048427000000
 H    6.269421056000000    2.147671426000000    0.000055897000000
 H    9.984099341000000    -0.000027585000000    0.000091637000000




