%nproc=15
%mem=70GB
%chk=Pyrene_tBu_Catechol_BoronateEster_freq.chk
#P B3LYP/6-311++G(d,p) EmpiricalDispersion=GD3 freq(noraman) SCF=YQC

Restart from Pyrene_tBu_Catechol_BoronateEster.log

0 1
 C   2.408877  -0.666357  -0.000004
 C   1.227316  -1.456536  -0.000010
 C   0.003782  -0.716864  -0.000004
 C  -0.003782   0.716864   0.000006
 C   1.208911   1.469195   0.000011
 C   2.400002   0.693556   0.000006
 C  -1.227316   1.456537   0.000011
 C  -1.215417   2.853266   0.000021
 C  -0.017404   3.580302   0.000026
 C   1.185976   2.869953   0.000021
 C  -1.208911  -1.469195  -0.000010
 C  -2.400002  -0.693556  -0.000004
 C  -2.408877   0.666357   0.000006
 C  -1.185975  -2.869952  -0.000020
 C   0.017404  -3.580302  -0.000025
 C   1.215418  -2.853266  -0.000020
 H   2.137220   3.382702   0.000024
 H  -2.169885   3.364153   0.000024
 H   2.169885  -3.364153  -0.000023
 H  -2.137219  -3.382702  -0.000024
 C  -0.068491   5.116979   0.000036
 C   0.068491  -5.116978  -0.000036
 C  -1.334207  -5.750297  -0.000041
 C   0.817334  -5.602718  -1.262246
 C   0.817334  -5.602736   1.262167
 C  -0.817330   5.602718   1.262249
 C   1.334206   5.750299   0.000034
 C  -0.817340   5.602736  -1.262164
 H  -1.243320  -6.839692  -0.000049
 H  -1.907356  -5.466582   0.886719
 H  -1.907356  -5.466569  -0.886796
 H   0.861445  -6.696004  -1.277954
 H   0.306102  -5.267919  -2.168925
 H   1.842071  -5.226571  -1.296862
 H   0.861445  -6.696023   1.277859
 H   1.842071  -5.226590   1.296788
 H   0.306101  -5.267950   2.168851
 H  -0.861445   6.696004   1.277954
 H  -1.842065   5.226567   1.296871
 H  -0.306091   5.267924   2.168926
 H  -0.861451   6.696022  -1.277857
 H  -0.306112   5.267948  -2.168850
 H  -1.842077   5.226590  -1.296780
 H   1.243318   6.839693   0.000042
 H   1.907359   5.466572   0.886788
 H   1.907351   5.466583  -0.886728
 B   4.501191   0.026940   0.000003
 C   6.038108   0.037130   0.000001
 C   6.764550  -1.165484  -0.000009
 C   6.748086   1.249553   0.000009
 C   8.156497  -1.157365  -0.000010
 C   8.140016   1.260379   0.000008
 C   8.845389   0.056261  -0.000002
 O   3.710335  -1.121908  -0.000008
 O   3.695664   1.165425   0.000009
 H   8.705441  -2.092484  -0.000017
 H   8.676150   2.202900   0.000014
 H   6.200275   2.185676   0.000016
 H   6.229579  -2.109005  -0.000015
 H   9.929905   0.063649  -0.000003
 B  -4.501191  -0.026940   0.000002
 C  -6.038108  -0.037130   0.000000
 C  -6.764550   1.165483   0.000008
 C  -6.748086  -1.249554  -0.000010
 C  -8.156498   1.157364   0.000006
 C  -8.140015  -1.260380  -0.000011
 C  -8.845389  -0.056262  -0.000003
 O  -3.710335   1.121908   0.000008
 O  -3.695664  -1.165425  -0.000008
 H  -8.705442   2.092483   0.000013
 H  -8.676149  -2.202901  -0.000019
 H  -6.200274  -2.185676  -0.000016
 H  -6.229580   2.109005   0.000016
 H  -9.929904  -0.063650  -0.000004






