%nproc=15
%mem=70GB
%chk=TrisPhenyl_Aldehyde_Benzobisoxazole_freq.chk
#P B3LYP/6-311++G(d,p) EmpiricalDispersion=GD3 freq(noraman) SCF=YQC

Restart from TrisPhenyl_Aldehyde_Benzobisoxazole.log

0 1
 C   5.670690   0.673810   0.074881
 C   5.074017  -0.320587  -0.711682
 C   3.694650  -0.481560  -0.707867
 C   2.871609   0.340181   0.075935
 C   3.480674   1.333497   0.860306
 C   4.856992   1.500828   0.863058
 C   1.398862   0.165596   0.076394
 C   0.549231   1.277682   0.076786
 C  -0.842293   1.128562   0.076599
 C  -1.380536  -0.163297   0.076534
 C  -0.555637  -1.293844   0.076089
 C   0.832270  -1.114062   0.076253
 C  -1.140827  -2.656568   0.075459
 C  -0.584583  -3.680991   0.859053
 C  -1.127829  -4.956578   0.861763
 C  -2.251502  -5.247462   0.074359
 C  -2.814850  -4.233267  -0.711503
 C  -2.264518  -2.958241  -0.707711
 C  -1.729892   2.316680   0.076262
 C  -2.895052   2.347098   0.860066
 C  -3.728260   3.455252   0.862781
 C  -3.418635   4.573770   0.075173
 C  -2.258707   4.554663  -0.710787
 C  -1.429508   3.440661  -0.706974
 H   0.976939   2.273091   0.077702
 H   1.480529  -1.982130   0.076703
 H  -2.456431  -0.290625   0.077266
 H   0.268636  -3.466083   1.491904
 H  -2.697321  -2.191744  -1.339986
 H  -0.699428  -5.738589   1.476134
 H  -3.676579  -4.450486  -1.329697
 H   5.320081   2.262335   1.478015
 H   2.867960   1.964412   1.493712
 H   5.692970  -0.957786  -1.330391
 H   3.247155  -1.239241  -1.340544
 H  -0.549328   3.432288  -1.339291
 H  -2.016147   5.409525  -1.329093
 H  -4.619650   3.475172   1.477230
 H  -3.135359   1.500749   1.493011
 H   12.458539   0.201815  -1.014757
 C   11.511191   0.551715  -0.621857
 C   11.498385   1.622833   0.288578
 H   12.439017   2.076535   0.578287
 C   10.309942   2.112312   0.824507
 H   10.295277   2.936982   1.526057
 C   9.124214   1.495871   0.421729
 N   7.797426   1.738173   0.761742
 C   9.165204   0.430586  -0.486568
 O   7.873879   0.023253  -0.701135
 C   10.332431  -0.073253  -1.032602
 H   10.329233  -0.898667  -1.732675
 C   7.114518   0.863813   0.089257
 H  -6.055884  -10.889218  -1.013033
 C  -5.278723  -10.243927  -0.620744
 C  -4.343961  -10.768693   0.288756
 H  -4.421272  -11.810184   0.578380
 C  -3.325225  -9.984465   0.823886
 H  -2.603149  -10.384327   1.524731
 C  -3.266359  -8.649319   0.421268
 N  -2.392750  -7.621586   0.760777
 C  -4.210150  -8.151879  -0.486112
 O  -3.917289  -6.829882  -0.700656
 C  -5.230718  -8.910557  -1.031344
 H  -5.944515  -8.494852  -1.730703
 C  -2.808978  -6.592809   0.088863
 H  -6.404594   10.687916  -1.014113
 C  -6.233995   9.692395  -0.621555
 C  -7.155886   9.144994   0.287740
 H  -8.019578   9.732333   0.576933
 C  -6.985663   7.870823   0.823202
 H  -7.693039   7.445221   1.523881
 C  -5.858349   7.152725   0.421120
 N  -5.404694   5.882531   0.760955
 C  -4.955623   7.721591  -0.486076
 O  -3.956718   6.807357  -0.700161
 C  -5.102777   8.984594  -1.031606
 H  -4.385825   9.395101  -1.730810
 C  -4.305359   5.728962   0.089406






