%nproc=15
%mem=70GB
%chk=ExtendedTrisPhenyl_PrimaryAmine_Ketoenamine.chk
#P B3LYP/6-311++G(d,p) EmpiricalDispersion=GD3 opt SCF=YQC NoSymm

Comment

0 1
 C    2.406280000000000    -1.304070000000000    -0.188810000000000
 C    1.203390000000000    -0.548970000000000    -0.106440000000000
 C    -0.027230000000000    -1.203660000000000    -0.047250000000000
 H    -0.068540000000000    -2.290310000000000    -0.082140000000000
 C    -1.205400000000000    -0.462500000000000    0.059980000000000
 C    -2.456090000000000    -1.145820000000000    0.109240000000000
 C    -1.153500000000000    0.928000000000000    0.109830000000000
 H    -2.069380000000000    1.508030000000000    0.195200000000000
 C    0.083700000000000    1.572160000000000    0.044410000000000
 C    0.148000000000000    2.991420000000000    0.079300000000000
 C    1.263040000000000    0.839400000000000    -0.064700000000000
 H    2.222880000000000    1.348280000000000    -0.114060000000000
 C    0.175490000000000    4.190400000000000    0.090480000000000
 C    0.127670000000000    5.611430000000000    0.085080000000000
 C    -3.456150000000000    -1.808590000000000    0.128860000000000
 C    -4.564140000000000    -2.707110000000000    0.127640000000000
 C    3.394430000000000    -1.983070000000000    -0.219750000000000
 C    4.502070000000000    -2.877030000000000    -0.213360000000000
 C    -1.117180000000000    6.242170000000000    0.077500000000000
 C    -1.189510000000000    7.632000000000000    0.064410000000000
 H    -2.030180000000000    5.651340000000000    0.079790000000000
 C    -0.016980000000000    8.387359999999999    0.058750000000000
 H    -2.159150000000000    8.121460000000001    0.057590000000000
 C    1.227970000000000    7.755110000000000    0.065810000000000
 C    1.302670000000000    6.362820000000000    0.078900000000000
 H    2.139400000000000    8.346740000000000    0.060060000000000
 H    2.273040000000000    5.872360000000000    0.082380000000000
 C    4.252440000000000    -4.250540000000001    -0.198640000000000
 C    5.314610000000000    -5.149730000000000    -0.169460000000000
 H    3.229840000000000    -4.620520000000000    -0.204530000000000
 C    6.625220000000000    -4.673790000000000    -0.155500000000000
 H    5.116950000000000    -6.217720000000000    -0.154560000000000
 C    6.874820000000000    -3.299950000000000    -0.171320000000000
 C    5.811540000000000    -2.397060000000000    -0.200240000000000
 H    7.897730000000000    -2.933230000000000    -0.157900000000000
 H    6.009820000000000    -1.328100000000000    -0.207300000000000
 C    -4.315700000000000    -4.082170000000000    0.120760000000000
 C    -5.377930000000000    -4.983700000000000    0.105750000000000
 H    -3.293760000000000    -4.454150000000001    0.124030000000000
 C    -6.689040000000000    -4.509870000000000    0.098020000000000
 H    -5.180530000000000    -6.052100000000000    0.098250000000000
 C    -6.938440000000000    -3.136120000000000    0.105990000000000
 C    -5.875190000000000    -2.231340000000000    0.120820000000000
 H    -7.961900000000000    -2.770510000000000    0.098710000000000
 H    -6.075870000000000    -1.163000000000000    0.123970000000000
 H    -2.610222802000000    14.346462572000000    -0.052701434000000
 C    -1.691503108000000    14.924565446000001    0.034928500000000
 C    -1.771956367000000    16.319671479000000    0.068271398000000
 H    -2.741167869000000    16.808725014000000    0.007532055000000
 C    -0.612257840000000    17.081407714000001    0.180410780000000
 H    -0.673012297000000    18.166742435000000    0.205841751000000
 C    0.625586861000000    16.449438526000002    0.265738308000000
 H    1.531205374000000    17.044760915000001    0.359168619000000
 C    0.708490015000000    15.052600836000000    0.237464186000000
 H    1.696361773000000    14.615805663000000    0.326155628000000
 C    -0.450120230000000    14.272306371000001    0.113395716000000
 C    -0.451004304000000    12.774152720000000    0.070726407000000
 O    -1.516096009000000    12.160908990999999    0.098383143000000
 C    0.847199180000000    12.046289872999999    -0.019581840000000
 C    0.932428295000000    10.708176873999999    -0.015578132000000
 H    1.765181598000000    12.607372343000000    -0.104389983000000
 N    -0.080559531000000    9.790580035000000    0.058504077000000
 H    1.924111890000000    10.273388276000000    -0.088086360000000
 H    -1.016286291000000    10.204981003000000    0.097813515000000
 H    12.990513701999999    -5.974157509000000    -0.356282364000000
 C    12.937014319999999    -7.058591979000000    -0.272213863000000
 C    14.125446345000000    -7.794335013000000    -0.257488738000000
 H    15.081682090999999    -7.281740692000000    -0.328859761000000
 C    14.084121735000000    -9.181603239999999    -0.150263969000000
 H    15.007611831000000    -9.755480683000000    -0.139308787000000
 C    12.856923124000000    -9.832070447000000    -0.051262319000000
 H    12.825119473999999    -10.915696672999999    0.038323338000000
 C    11.665733513999999    -9.097357856000000    -0.060885777000000
 H    10.741916422999999    -9.655357467000000    0.037832125000000
 C    11.691086873000000    -7.700271982000000    -0.179790801000000
 C    10.464922609000000    -6.838717933000000    -0.202847913000000
 O    10.575274594000000    -5.614743736000000    -0.171820336000000
 C    9.122245734000000    -7.482807401000000    -0.277946227000000
 C    7.978207820000000    -6.783862202000000    -0.256053515000000
 H    9.052959635999999    -8.556180397000000    -0.366079791000000
 N    7.810154803000000    -5.427873186000000    -0.174392978000000
 H    7.051711197000000    -7.345498803000000    -0.318529542000000
 H    8.687380852000000    -4.900194430000000    -0.144601164000000
 H    -10.196225776000000    -9.981530056000000    0.004119590000000
 C    -11.187739702000000    -9.539911754000000    0.092444135000000
 C    -12.301883177000001    -10.383250817000000    0.129442264000000
 H    -12.168757563000000    -11.460781144000000    0.070794783000000
 C    -13.580049383999999    -9.843604729000001    0.242540696000000
 H    -14.447829069000001    -10.498164387999999    0.270813707000000
 C    -13.743940626000002    -8.463301810000001    0.325177605000000
 H    -14.742457328000000    -8.042139964000000    0.419358047000000
 C    -12.629713905999999    -7.616952707000000    0.293241672000000
 H    -12.816593937000000    -6.552949561000000    0.379959410000000
 C    -11.336756016000001    -8.145390022999999    0.168165555000000
 C    -10.091745279000000    -7.312281370000000    0.121646204000000
 O    -8.989369942000000    -7.855689928000000    0.148643611000000
 C    -10.209862277999999    -5.828833935000000    0.028349519000000
 C    -9.145662301999998    -5.013171873000000    0.028840245000000
 H    -11.187111701000001    -5.378723939000000    -0.055806496000000
 N    -7.819372477000000    -5.343779892000001    0.101435760000000
 H    -9.336598099000000    -3.947464948000000    -0.045639218000000
 H    -7.642702760000000    -6.351723325000000    0.142615967000000




