%nproc=15
%mem=70GB
%chk=T-brick_PrimaryAmine_Ketoenamine.chk
#P B3LYP/6-311++G(d,p) EmpiricalDispersion=GD3 opt SCF=YQC NoSymm

Comment

0 1
 N    1.048041667000000    -2.362353333000000    -0.827760000000000
 C    0.687191667000000    -1.111843333000000    -0.380820000000000
 C    -0.707988333000000    -1.156633333000000    -0.350020000000000
 N    -1.140578333000000    -2.423203333000000    -0.704650000000000
 C    -1.452748333000000    -0.004173333000000    0.016440000000000
 C    -2.937038333000000    0.018916667000000    0.013290000000000
 C    -0.690808333000000    1.125556667000000    0.389200000000000
 H    -1.190148333000000    2.031256667000000    0.727650000000000
 C    0.707131667000000    1.132496667000000    0.363290000000000
 H    1.218751667000000    2.041706667000000    0.676780000000000
 C    1.457221667000000    0.014596667000000    -0.038090000000000
 C    2.930271667000000    0.035566667000000    -0.088570000000000
 C    -3.644438333000000    1.216186667000000    -0.227900000000000
 C    3.614231667000000    1.150886667000000    -0.607650000000000
 C    3.709801667000000    -1.028743333000000    0.397570000000000
 C    -3.714278333000000    -1.126953333000000    0.257540000000000
 C    -5.114658333000000    -1.083173333000000    0.260860000000000
 H    -3.237768333000000    -2.085023333000000    0.454110000000000
 C    5.107441667000000    -0.993503333000000    0.339110000000000
 H    3.237601667000000    -1.893393333000000    0.858000000000000
 C    -5.778958333000000    0.116916667000000    0.034260000000000
 H    -5.680408333000000    -1.992973333000000    0.442850000000000
 C    -5.043148333000000    1.269606667000000    -0.208850000000000
 H    -3.111798333000000    2.138136667000000    -0.449260000000000
 C    5.011001667000000    1.198966667000000    -0.646670000000000
 H    3.058831667000001    2.004406667000000    -0.992550000000000
 C    5.757241667000000    0.121996667000000    -0.180560000000000
 H    5.688571667000000    -1.831683333000000    0.715280000000000
 H    5.511931667000000    2.079726667000000    -1.040580000000000
 H    -5.551588333000000    2.212836667000000    -0.390060000000000
 C    -0.066158333000000    -3.157953333000000    -0.916690000000000
 H    1.993111667000000    -2.657013333000000    -1.011250000000000
 C    -0.040848333000000    -4.599613333000000    -1.196060000000000
 C    -1.251718333000000    -5.281883333000000    -1.390290000000000
 C    -1.273518333000000    -6.658563333000001    -1.631550000000000
 H    -2.193238333000000    -4.735723333000000    -1.348080000000000
 C    1.151281667000000    -5.339883333000000    -1.242140000000000
 C    -0.081488333000000    -7.375973333000000    -1.679350000000000
 H    -2.223038333000000    -7.167013333000000    -1.777580000000000
 C    1.130121667000000    -6.718103333000000    -1.483600000000000
 H    2.116521667000000    -4.871123333000000    -1.078620000000000
 H    2.060961667000000    -7.279213333000000    -1.512890000000000
 H    -11.788307014000001    -2.328247851000000    0.430658837000000
 C    -12.347745307000000    -1.397977122000000    0.343750942000000
 C    -13.743928368000001    -1.442159983000000    0.394995983000000
 H    -14.252245284000001    -2.395118314000000    0.520367014000000
 C    -14.482088198999998    -0.266938563000000    0.286863259000000
 H    -15.568227975999999    -0.299606241000000    0.325882500000000
 C    -13.825470296000001    0.951468011000000    0.134338854000000
 H    -14.402345502999999    1.870329346000000    0.055651469000000
 C    -12.427476737999999    0.998981624000000    0.087601727000000
 H    -11.970869452000001    1.976624586000000    -0.013743390000000
 C    -11.670814687000000    -0.177812274000000    0.183772403000000
 C    -10.173223000000000    -0.188535393000000    0.206329701000000
 O    -9.580391414999999    -1.116822349000000    0.752303277000000
 C    -9.420632828000000    0.892483994000000    -0.492438721000000
 C    -8.081152864000000    0.948087691000000    -0.515418830000000
 H    -9.963990129999999    1.663576038000000    -1.016726409000000
 N    -7.183129758000000    0.083094118000000    0.049344031000000
 H    -7.627445873999999    1.774057818000000    -1.053617897000000
 H    -7.615320537000000    -0.710283137000000    0.531652672000000
 H    11.788307014000001    2.328247851000000    -0.430658837000000
 C    12.347745307000000    1.397977122000000    -0.343750942000000
 C    13.743928368000001    1.442159983000000    -0.394995983000000
 H    14.252245284000001    2.395118314000000    -0.520367014000000
 C    14.482088198999998    0.266938563000000    -0.286863259000000
 H    15.568227975999999    0.299606241000000    -0.325882500000000
 C    13.825470296000001    -0.951468011000000    -0.134338854000000
 H    14.402345502999999    -1.870329346000000    -0.055651469000000
 C    12.427476737999999    -0.998981624000000    -0.087601727000000
 H    11.970869452000001    -1.976624586000000    0.013743390000000
 C    11.670814687000000    0.177812274000000    -0.183772403000000
 C    10.173223000000000    0.188535393000000    -0.206329701000000
 O    9.580391414999999    1.116822349000000    -0.752303277000000
 C    9.420632828000000    -0.892483994000000    0.492438721000000
 C    8.081152864000000    -0.948087691000000    0.515418830000000
 H    9.963990129999999    -1.663576038000000    1.016726409000000
 N    7.183129758000000    -0.083094118000000    -0.049344031000000
 H    7.627445873999999    -1.774057818000000    1.053617897000000
 H    7.615320537000000    0.710283137000000    -0.531652672000000
 H    2.445354807000000    -13.206358500000000    -3.046794944000000
 C    1.517482191000000    -13.771488164000001    -3.121686111000000
 C    1.580624433000000    -15.139644401000000    -3.401090635000000
 H    2.545705111000000    -15.621154488000000    -3.538934321000000
 C    0.408949077000000    -15.884521587000000    -3.501354519000000
 H    0.456255930000000    -16.948740672000000    -3.719274444000000
 C    -0.823814733000000    -15.264120351000001    -3.316095134000000
 H    -1.739002852000000    -15.847582852000000    -3.388793674000000
 C    -0.889567987000000    -13.895369687000001    -3.031444434000000
 H    -1.874904836000000    -13.470694655999999    -2.878770868000000
 C    0.281663585000000    -13.129709463999999    -2.938648068000000
 C    0.283303266000000    -11.677227064000000    -2.573002244000000
 O    1.279698816000000    -11.183779523000000    -2.048637354000000
 C    -0.898714496000000    -10.833610302000000    -2.911258006000000
 C    -0.968313238000000    -9.527531205000001    -2.616063435000000
 H    -1.736867283000000    -11.276991713999999    -3.426632148000000
 N    -0.034089752000000    -8.744154265000001    -1.993838782000000
 H    -1.871107524000000    -9.000022466000001    -2.906635161000000
 H    0.827708782000000    -9.239475082000000    -1.747224632000000




