%nproc=15
%mem=70GB
%chk=Triazine-TrisPhenyl_PrimaryAmine_Ketoenamine.chk
#P B3LYP/6-311++G(d,p) EmpiricalDispersion=GD3 opt SCF=YQC NoSymm

Comment

0 1
 C    4.027462051000000    -3.893913718000000    0.310066179000000
 C    2.672148051000000    -4.262318718000000    0.319743179000000
 C    1.678672051000000    -3.300991718000001    0.229140179000000
 C    2.003629051000000    -1.937063718000000    0.160580179000000
 C    3.355470051000000    -1.566913718000000    0.187692179000000
 C    4.354395051000000    -2.527048718000000    0.261396179000000
 C    0.941359051000000    -0.909939718000000    0.077892179000000
 N    1.312939051000000    0.376982282000000    0.037767179000000
 C    0.318010051000000    1.271410282000000    -0.038992821000000
 N    -0.981642949000000    0.947974282000000    -0.075637821000000
 C    -1.260558949000000    -0.362144718000000    -0.031325821000000
 N    -0.332144949000000    -1.325265718000000    0.045418179000000
 C    0.676958051000000    2.706621282000000    -0.083768821000000
 C    -0.317350949000000    3.691753282000000    -0.190296821000000
 C    0.018704051000000    5.034651282000000    -0.245812821000000
 C    1.360665051000000    5.440586282000000    -0.161808821000000
 C    2.359252051000000    4.454275282000000    -0.075031821000000
 C    2.018771051000000    3.109724282000000    -0.036659821000000
 C    -2.682392949000000    -0.770638718000000    -0.066681821000000
 C    -3.700649949000000    0.190456282000000    -0.135975821000000
 C    -5.035099948999999    -0.188277718000000    -0.165449821000000
 C    -5.391426949000000    -1.548090718000000    -0.125807821000000
 C    -4.369830949000000    -2.511469718000000    -0.093439821000000
 C    -3.039347949000000    -2.128166718000000    -0.047251821000000
 H    0.636350051000000    -3.590416718000000    0.220005179000000
 H    2.423007051000000    -5.314639718000000    0.386235179000000
 H    5.392662051000000    -2.220384718000000    0.316972179000000
 H    3.609547051000000    -0.515584718000000    0.158735179000000
 H    -1.353435949000000    3.384405282000000    -0.238761821000000
 H    -0.746394949000000    5.795773282000000    -0.341783821000000
 H    3.403496051000000    4.745260282000000    -0.073396821000000
 H    2.789534051000000    2.352613282000000    0.021499179000000
 H    -3.429036949000000    1.237058282000000    -0.175087821000000
 H    -5.807122949000000    0.567416282000000    -0.254919821000000
 H    -4.647001949000000    -3.558870718000000    -0.092107821000000
 H    -2.256291949000000    -2.873402718000000    -0.005591821000000
 H    10.110609338000000    -6.177105149000000    0.484963558000000
 C    9.883124223999999    -7.234680041000001    0.610317806000000
 C    10.938850029999999    -8.144821690000001    0.715153484000000
 H    11.966156234000000    -7.791314582000000    0.671469963000000
 C    10.674601752999999    -9.501964497000001    0.876566801000000
 H    11.494651471999999    -10.211355835000001    0.957632701000000
 C    9.357034480999999    -9.948006661999999    0.939719126000000
 H    9.150839467999999    -11.007894479999999    1.071644444000000
 C    8.298203217999999    -9.038206830000000    0.839876682000000
 H    7.294524411000000    -9.440240215999999    0.914340194000000
 C    8.548753468999999    -7.669454814000000    0.665599240000000
 C    7.476010756000000    -6.629712340000000    0.545414073000000
 O    7.776570524000000    -5.437764413000000    0.532107330000000
 C    6.053121563000000    -7.059878394000000    0.428727735000000
 C    5.033790396000000    -6.191187493000000    0.364179144000000
 H    5.819318151000000    -8.112377863000001    0.380994006000000
 N    5.078311443000000    -4.823225710000000    0.381924787000000
 H    4.033925358000000    -6.604156981000000    0.277801906000000
 H    6.025639754000000    -4.437667746000000    0.434575431000000
 H    0.314003803000000    11.833615071000001    -0.692766684000000
 C    1.336256614000000    12.178048497000001    -0.543459547000000
 C    1.595779738000000    13.551437439000001    -0.562324369000000
 H    0.782618383000000    14.254968785000001    -0.723711538000000
 C    2.893845483000000    14.017311935000000    -0.373368601000000
 H    3.097556968000000    15.085284450000000    -0.388389658000000
 C    3.929993326000000    13.112052399000000    -0.159293467000000
 H    4.943326359000000    13.476627334000000    -0.005917649000000
 C    3.672024447000000    11.736663305000002    -0.135111050000000
 H    4.513793801000000    11.080777872000001    0.054059400000000
 C    2.371412988000000    11.251911206000001    -0.335249432000000
 C    2.008871819000000    9.797670316000000    -0.329491879000000
 O    0.827624609000000    9.460373784000000    -0.375743173000000
 C    3.093606818000000    8.775732974000000    -0.281886804000000
 C    2.849694861000000    7.458406492000000    -0.227257813000000
 H    4.124348698000000    9.094777924000001    -0.303776890000000
 N    1.641078175000000    6.816023529000000    -0.212894458000000
 H    3.708116756000000    6.795074928000000    -0.198309515000000
 H    0.834356913000000    7.444414027000000    -0.269322729000000
 H    -10.402531273999999    -5.681163545000000    -0.359849637000000
 C    -11.213138021000001    -4.956534643000000    -0.298551417000000
 C    -12.532752872000000    -5.417531932000000    -0.300412701000000
 H    -12.734633542999999    -6.484161600000001    -0.361885524000000
 C    -13.586775678000000    -4.511629654000000    -0.222342254000000
 H    -14.613871337999999    -4.868504817000000    -0.224321043000000
 C    -13.322080493000001    -3.147302777000000    -0.135890108000000
 H    -14.145799365000000    -2.439979375000000    -0.069079281000000
 C    -12.001618356000000    -2.683449959000000    -0.128947371000000
 H    -11.855882021999999    -1.613125770000000    -0.041118802000000
 C    -10.929721256000001    -3.583256444000000    -0.218474097000000
 C    -9.488449534000001    -3.172151486000000    -0.222262259000000
 O    -8.607101015000000    -4.027293764000000    -0.165609126000000
 C    -9.143211961000000    -1.724239121000000    -0.309629250000000
 C    -7.880741338000000    -1.274154233000000    -0.271973548000000
 H    -9.932375357000000    -0.996446296000000    -0.420247581000000
 N    -6.722526862000000    -1.995255534000000    -0.161662113000000
 H    -7.733416459000000    -0.201474315000000    -0.345377163000000
 H    -6.864698895000000    -3.008685536000000    -0.121603334000000




