%nproc=15
%mem=70GB
%chk=Adamantane_BoronicAcid_BoronateEster_freq.chk
#P B3LYP/6-311++G(d,p) EmpiricalDispersion=GD3 freq(noraman) SCF=YQC

Restart from Adamantane_BoronicAcid_BoronateEster.log

0 1
 C   0.000000   0.000000   1.793416
 C  -0.000000   0.000000  -1.776467
 H  -0.840529  -0.256081  -2.430336
 H   0.840529   0.256082  -2.430336
 C  -1.221928  -0.363085   0.914172
 C   1.221928   0.363085   0.914171
 C  -0.363278   1.222472  -0.896453
 C   0.363278  -1.222472  -0.896453
 C  -0.858291  -1.563501   0.007583
 C   0.858291   1.563501   0.007583
 C  -1.563653   0.857947   0.008898
 C   1.563653  -0.857946   0.008898
 H  -0.626599  -2.436921   0.628556
 H   0.626599   2.436921   0.628556
 H  -2.436818   0.626273  -0.611944
 H   2.436818  -0.626273  -0.611944
 H  -1.718594  -1.835046  -0.612461
 H   1.718594   1.835047  -0.612461
 H  -1.835543   1.718817   0.628449
 H   1.835544  -1.718817   0.628448
 H  -0.255461   0.839986   2.448089
 H   0.255462  -0.839986   2.448089
 B  -2.474001  -0.673198   1.792323
 O  -3.464802  -1.598488   1.471871
 O  -2.784565  -0.020922   2.984074
 C  -4.404268  -1.507405   2.477635
 C  -3.989833  -0.547080   3.397754
 C  -5.583513  -2.209715   2.631637
 C  -4.733803  -0.238810   4.520002
 C  -6.349054  -1.906517   3.765440
 C  -5.933412  -0.942957   4.688784
 H  -5.893737  -2.953870   1.909275
 H  -4.400572   0.509235   5.227956
 H  -7.282838  -2.431576   3.927918
 H  -6.550775  -0.734174   5.554429
 B   2.474002   0.673198   1.792322
 O   3.464801   1.598491   1.471873
 O   2.784567   0.020919   2.984072
 C   4.404268   1.507407   2.477635
 C   3.989835   0.547078   3.397752
 C   5.583512   2.209718   2.631639
 C   4.733806   0.238807   4.520000
 C   6.349054   1.906518   3.765441
 C   5.933414   0.942955   4.688782
 H   5.893734   2.953876   1.909278
 H   4.400577  -0.509240   5.227951
 H   7.282837   2.431579   3.927919
 H   6.550778   0.734171   5.554426
 B  -0.673751   2.469945  -1.781174
 O   0.048439   2.826167  -2.918975
 O  -1.671915   3.406802  -1.525637
 C  -0.509642   4.005255  -3.364564
 C  -1.556853   4.359325  -2.516879
 C  -0.158992   4.775401  -4.456342
 C  -2.308206   5.500857  -2.716468
 C  -0.912174   5.937333  -4.670787
 C  -1.962908   6.292287  -3.820049
 H   0.656753   4.489441  -5.107954
 H  -3.119747   5.764072  -2.050188
 H  -0.672896   6.573199  -5.514876
 H  -2.523917   7.198251  -4.016334
 B   0.673751  -2.469944  -1.781174
 O  -0.048437  -2.826166  -2.918977
 O   1.671912  -3.406804  -1.525635
 C   0.509643  -4.005254  -3.364565
 C   1.556851  -4.359326  -2.516878
 C   0.158994  -4.775399  -4.456344
 C   2.308202  -5.500860  -2.716466
 C   0.912173  -5.937332  -4.670787
 C   1.962905  -6.292289  -3.820048
 H  -0.656749  -4.489437  -5.107958
 H   3.119742  -5.764077  -2.050184
 H   0.672897  -6.573198  -5.514878
 H   2.523913  -7.198254  -4.016331






