%nproc=15
%mem=70GB
%chk=F_Aldehyde_Hydrazone_freq.chk
#P B3LYP/6-311++G(d,p) EmpiricalDispersion=GD3 freq(noraman) SCF=YQC NoSymm

Restart from F_Aldehyde_Hydrazone.log

0 1
 F   1.142541  -2.461035   0.183162
 C   0.615869  -1.240474   0.089333
 C  -0.761955  -1.120958   0.151118
 F  -1.484861  -2.248771   0.301358
 C  -1.432581   0.109099   0.066310
 C  -0.615869   1.240474  -0.089341
 F  -1.142541   2.461035  -0.183170
 C   0.761955   1.120957  -0.151126
 F   1.484861   2.248771  -0.301366
 C   1.432581  -0.109099  -0.066318
 H  -9.543666  -0.298653  -0.915124
 C  -9.125299   0.562885  -0.407586
 C  -9.961734   1.459104   0.255460
 H  -11.032034   1.287903   0.275461
 C  -9.421270   2.582956   0.882161
 H  -10.070890   3.285660   1.391186
 C  -8.049411   2.807392   0.850569
 H  -7.614250   3.683325   1.315836
 C  -7.200816   1.899482   0.206975
 C  -5.733756   2.215470   0.203162
 C  -7.749059   0.779258  -0.430369
 H  -7.116402   0.092892  -0.982480
 O  -5.300721   3.343749   0.260232
 N  -4.911083   1.087281   0.149681
 H  -5.326047   0.167839   0.279605
 N  -3.571957   1.209047   0.081211
 C  -2.887745   0.125177   0.142297
 H  -3.366315  -0.852178   0.254956
 H   9.543659   0.298657   0.915131
 C   9.125295  -0.562883   0.407593
 C   9.961735  -1.459104  -0.255445
 H   11.032035  -1.287902  -0.275441
 C   9.421274  -2.582958  -0.882147
 H   10.070896  -3.285663  -1.391166
 C   8.049414  -2.807394  -0.850562
 H   7.614256  -3.683328  -1.315829
 C   7.200816  -1.899483  -0.206976
 C   5.733756  -2.215470  -0.203170
 C   7.749055  -0.779256   0.430369
 H   7.116394  -0.092889   0.982474
 O   5.300721  -3.343750  -0.260234
 N   4.911083  -1.087281  -0.149689
 H   5.326047  -0.167839  -0.279613
 N   3.571957  -1.209047  -0.081219
 C   2.887745  -0.125177  -0.142305
 H   3.366315   0.852178  -0.254964






