%nproc=15
%mem=70GB
%chk=Adamantane_Aldehyde_Imine.chk
#P B3LYP/6-311++G(d,p) EmpiricalDispersion=GD3 opt SCF=YQC

Comment

0 1
 C    -0.000001000000000    -0.000001000000000    1.760854000000000
 C    -0.000001000000000    -0.000001000000000    -1.760853000000000
 H    0.583501000000000    -0.548807000000000    -2.343561000000000
 H    -0.583501000000000    0.548807000000000    -2.343561000000000
 C    0.925717000000000    -0.871783000000000    0.897399000000000
 C    -0.925717000000000    0.871783000000000    0.897399000000000
 C    -0.871783000000000    -0.925717000000000    -0.897399000000000
 C    0.871783000000000    0.925717000000000    -0.897399000000000
 C    1.773370000000000    0.051568000000000    -0.002829000000000
 C    -1.773370000000000    -0.051569000000000    -0.002829000000000
 C    0.051568000000000    -1.773370000000000    0.002829000000000
 C    -0.051569000000000    1.773370000000000    0.002829000000000
 H    2.340312000000000    0.633966000000000    0.562907000000000
 H    -2.340313000000000    -0.633966000000000    0.562907000000000
 H    0.633966000000000    -2.340313000000000    -0.562907000000000
 H    -0.633966000000000    2.340312000000000    -0.562907000000000
 H    2.368699000000000    -0.498341000000000    -0.571393000000000
 H    -2.368700000000000    0.498341000000000    -0.571393000000000
 H    -0.498341000000000    -2.368700000000000    0.571393000000000
 H    0.498341000000000    2.368699000000000    0.571393000000000
 H    -0.548807000000000    -0.583501000000000    2.343561000000000
 H    0.548807000000000    0.583501000000000    2.343561000000000
 C    5.396099217000000    -3.948611241000000    4.375896999000000
 C    5.743473450000000    -3.813360981000000    3.030423046000000
 C    4.255642790000000    -3.308576578000000    4.859509084000000
 C    3.454818785000000    -2.554661028000000    4.005514005000000
 C    3.790900710000000    -2.430240117000000    2.647538281000000
 C    4.959363324000000    -3.046486928000000    2.175873010000000
 C    1.762542002000000    -1.692693938000000    1.778798425000000
 N    3.038496456000000    -1.667198449000000    1.739393087000000
 H    6.635333085000000    -4.298204219000000    2.649347605000000
 H    3.992738871000000    -3.387680510000000    5.908641193000000
 H    2.588099664000000    -2.031868154000000    4.393694190000000
 H    5.226176225000000    -2.920899422000001    1.133179141000000
 H    1.220519931000000    -2.350159780000000    2.472802530000000
 H    6.017450041000000    -4.533797868000000    5.043887497000000
 C    -5.396098928000000    3.948613688000000    4.375895206000000
 C    -5.743472419000000    3.813364162000000    3.030420989000000
 C    -4.255643324000000    3.308577940000000    4.859507798000000
 C    -3.454819390000000    2.554662029000000    4.005512971000000
 C    -3.790900556000000    2.430241847000000    2.647536993000000
 C    -4.959362373000000    3.046489762000000    2.175871190000000
 C    -1.762541895000000    1.692694318000000    1.778798172000000
 N    -3.038496345000000    1.667199875000000    1.739392018000000
 H    -6.635331421000000    4.298208250000000    2.649345146000000
 H    -3.992740005000000    3.387681306000000    5.908640099000000
 H    -2.588100937000000    2.031868323000000    4.393693529000001
 H    -5.226174716000000    2.920902823000000    1.133177110000000
 H    -1.220519731000000    2.350159489000000    2.472802841000000
 H    -6.017449701000000    4.533800593000000    5.043885508000000
 C    -4.716494146000000    -4.039174695000000    -5.029676206000000
 C    -5.362936554000000    -3.005221598000000    -4.349738815000000
 C    -3.339170593000000    -4.201579848000000    -4.885557233000000
 C    -2.612434471000000    -3.352727206000000    -4.054702771000000
 C    -3.261396873000000    -2.322165244000000    -3.355188988000000
 C    -4.640968937000000    -2.141757474000000    -3.533422250000000
 C    -1.654494333000000    -1.830044369000000    -1.746275184000000
 N    -2.583622925000000    -1.419084658000000    -2.519641040000000
 H    -6.431834346000000    -2.864999711000000    -4.465930032000000
 H    -2.825428943000000    -4.986292002000000    -5.429938016000000
 H    -1.537077910000000    -3.462442161000000    -3.972427762000000
 H    -5.127993632000001    -1.326024752000000    -3.012309092000000
 H    -1.401742934000000    -2.896465183000000    -1.665316330000000
 H    -5.278605461000000    -4.701301800000000    -5.678020333000000
 C    4.716494146000000    4.039174695000000    -5.029676206000000
 C    5.362936554000000    3.005221598000000    -4.349738815000000
 C    3.339170593000000    4.201579848000000    -4.885557233000000
 C    2.612434471000000    3.352727206000000    -4.054702771000000
 C    3.261396873000000    2.322165244000000    -3.355188988000000
 C    4.640968937000000    2.141757474000000    -3.533422250000000
 C    1.654494333000000    1.830044369000000    -1.746275184000000
 N    2.583622925000000    1.419084658000000    -2.519641040000000
 H    6.431834346000000    2.864999711000000    -4.465930032000000
 H    2.825428943000000    4.986292002000000    -5.429938016000000
 H    1.537077910000000    3.462442161000000    -3.972427762000000
 H    5.127993632000001    1.326024752000000    -3.012309092000000
 H    1.401742934000000    2.896465183000000    -1.665316330000000
 H    5.278605461000000    4.701301800000000    -5.678020333000000




