%nproc=15
%mem=70GB
%chk=Adamantane_Aldehyde_Imine_freq.chk
#P B3LYP/6-311++G(d,p) EmpiricalDispersion=GD3 freq(noraman) SCF=YQC

Restart from Adamantane_Aldehyde_Imine.log

0 1
 C   0.000000   1.776513  -0.000000
 C   0.000000  -1.776574   0.000000
 H  -0.626230  -2.424418  -0.623613
 H   0.626230  -2.424418   0.623613
 C  -0.907194   0.889806  -0.891140
 C   0.907194   0.889806   0.891140
 C   0.907226  -0.889874  -0.891100
 C  -0.907226  -0.889874   0.891100
 C  -1.788305  -0.000023  -0.000034
 C   1.788305  -0.000023   0.000034
 C   0.000031  -0.000041  -1.776103
 C  -0.000031  -0.000041   1.776103
 H  -2.446658   0.615824   0.615832
 H   2.446658   0.615824  -0.615832
 H  -0.624938  -0.623797  -2.424965
 H   0.624938  -0.623797   2.424965
 H  -2.446648  -0.615861  -0.615930
 H   2.446648  -0.615861   0.615930
 H   0.625024   0.623712  -2.424948
 H  -0.625024   0.623712   2.424948
 H   0.626257   2.424360  -0.623592
 H  -0.626257   2.424360   0.623592
 C  -5.120531   4.517604  -4.217731
 C  -5.509569   3.181768  -4.101026
 C  -4.012784   4.975618  -3.506563
 C  -3.285887   4.104503  -2.697724
 C  -3.665749   2.758997  -2.590967
 C  -4.799673   2.311018  -3.281131
 C  -1.714308   1.794221  -1.784206
 N  -2.981971   1.841419  -1.766104
 H  -6.376899   2.820580  -4.642405
 H  -3.716025   6.016488  -3.574759
 H  -2.440270   4.467997  -2.124600
 H  -5.102886   1.276823  -3.167709
 H  -1.122072   2.421536  -2.469760
 H  -5.684840   5.197492  -4.845484
 C   5.120531   4.517604   4.217731
 C   5.509569   3.181768   4.101026
 C   4.012784   4.975618   3.506563
 C   3.285887   4.104503   2.697724
 C   3.665749   2.758997   2.590967
 C   4.799673   2.311018   3.281131
 C   1.714308   1.794221   1.784205
 N   2.981971   1.841419   1.766104
 H   6.376899   2.820580   4.642405
 H   3.716025   6.016488   3.574759
 H   2.440270   4.467997   2.124600
 H   5.102886   1.276823   3.167709
 H   1.122072   2.421536   2.469760
 H   5.684840   5.197492   4.845484
 C   5.120698  -4.517613  -4.217517
 C   5.509462  -3.181660  -4.101226
 C   4.013205  -4.975700  -3.506006
 C   3.286294  -4.104544  -2.697221
 C   3.665901  -2.758937  -2.590858
 C   4.799562  -2.310860  -3.281382
 C   1.714414  -1.794269  -1.784132
 N   2.982078  -1.841387  -1.765997
 H   6.376584  -2.820409  -4.642895
 H   3.716649  -6.016648  -3.573903
 H   2.440849  -4.468045  -2.123848
 H   5.102583  -1.276574  -3.168291
 H   1.122260  -2.421657  -2.469689
 H   5.685030  -5.197527  -4.845221
 C  -5.120698  -4.517613   4.217517
 C  -5.509462  -3.181660   4.101226
 C  -4.013205  -4.975700   3.506006
 C  -3.286294  -4.104544   2.697221
 C  -3.665901  -2.758937   2.590858
 C  -4.799562  -2.310860   3.281382
 C  -1.714414  -1.794269   1.784132
 N  -2.982078  -1.841387   1.765997
 H  -6.376584  -2.820409   4.642895
 H  -3.716649  -6.016648   3.573903
 H  -2.440849  -4.468045   2.123848
 H  -5.102584  -1.276574   3.168291
 H  -1.122260  -2.421657   2.469689
 H  -5.685030  -5.197527   4.845221






