%nproc=15
%mem=70GB
%chk=P_Nitrile_Triazine_freq.chk
#P B3LYP/6-311++G(d,p) EmpiricalDispersion=GD3 freq(noraman) SCF=YQC

Restart from P_Nitrile_Triazine.log

0 1
 C   4.261826  -0.686287   0.002345
 C   4.265041   0.666446  -0.001504
 C   2.865264   1.081112  -0.010216
 C   2.860082  -1.094293   0.010224
 N   2.038478  -0.004632  -0.000209
 C   2.450546  -2.440615   0.008947
 C   1.123209  -2.887427  -0.000305
 N  -0.005054  -2.102509  -0.000136
 C  -1.136851  -2.882321  -0.000281
 C   0.674152  -4.248583   0.004271
 C  -0.693937  -4.245498  -0.005436
 C  -2.462132  -2.429398  -0.009275
 C  -2.865312  -1.081128  -0.010310
 N  -2.038531   0.004610  -0.000175
 C  -4.261870   0.686283   0.002253
 C  -4.265094  -0.666448  -0.001651
 C  -1.123249   2.887422  -0.000224
 N   0.005003   2.102493  -0.000144
 C   1.136799   2.882308  -0.000244
 C   0.693904   4.245480  -0.005247
 C  -0.674188   4.248573   0.004484
 C   2.462070   2.429372  -0.009228
 C  -2.450584   2.440604   0.008961
 C  -2.860137   1.094285   0.010196
 H   5.112786  -1.348527  -0.001413
 H   5.119130   1.324639   0.002875
 C   3.508195  -3.498047   0.020063
 H  -0.002835  -1.089388  -0.000224
 H   1.325231  -5.106960   0.013549
 H  -1.348847  -5.100948  -0.015078
 C  -3.524707  -3.481816  -0.020298
 H  -5.112825   1.348527  -0.001546
 H  -5.119202  -1.324614   0.002709
 H   0.002791   1.089372  -0.000177
 H   1.348831   5.100921  -0.014788
 H  -1.325260   5.106954   0.013802
 C   3.524647   3.481810  -0.020278
 C  -3.508220   3.498053   0.020075
 C  -3.771175  -4.261234   1.116846
 C  -4.757735  -5.239088   1.108969
 H  -3.186481  -4.089479   2.013191
 C  -5.522933  -5.463912  -0.044147
 H  -4.948707  -5.833852   1.992622
 C  -5.277969  -4.686648  -1.185175
 C  -4.291786  -3.708727  -1.169922
 H  -5.864783  -4.860881  -2.077547
 H  -4.106659  -3.112095  -2.055559
 C   4.272711  -3.729890   1.170395
 C   5.254218  -4.712511   1.185762
 H   4.089294  -3.133387   2.056476
 C   5.496863  -5.489642   0.044157
 H   5.839102  -4.890548   2.078651
 C   4.734226  -5.259877  -1.109665
 C   3.752360  -4.277283  -1.117673
 H   4.923426  -5.854588  -1.993733
 H   3.169577  -4.101745  -2.014529
 C   3.771381   4.260969   1.116976
 C   4.757971   5.238802   1.109076
 H   3.186881   4.089043   2.013414
 C   5.522911   5.463839  -0.044169
 H   4.949153   5.833383   1.992806
 C   5.277657   4.686836  -1.185312
 C   4.291445   3.708946  -1.170040
 H   5.864281   4.861248  -2.077775
 H   4.106083   3.112510  -2.055760
 C  -4.272849   3.729799   1.170347
 C  -5.254313   4.712465   1.185720
 H  -4.089559   3.133190   2.056382
 C  -5.496830   5.489728   0.044170
 H  -5.839262   4.890445   2.078576
 C  -4.734076   5.260037  -1.109603
 C  -3.752232   4.277430  -1.117601
 H  -4.923182   5.854832  -1.993633
 H  -3.169350   4.101971  -2.014409
 C  -6.572488  -6.503990  -0.056493
 N  -7.283481  -6.679800  -1.185156
 C  -8.211749  -7.629361  -1.133020
 N  -6.768065  -7.226589   1.061531
 C  -7.725979  -8.144737   0.987531
 N  -8.488655  -8.401645  -0.078734
 H  -7.905086  -8.742081   1.877340
 H  -8.800196  -7.792371  -2.031802
 C   6.541359  -6.534860   0.056668
 N   6.734345  -7.257637  -1.061683
 C   7.687674  -8.180540  -0.987488
 N   7.250496  -6.714910   1.185812
 C   8.174121  -7.669004   1.133836
 N   8.448142  -8.441919   0.079261
 H   8.760993  -7.835503   2.033007
 H   7.864628  -8.778133  -1.877559
 C   6.572485   6.503902  -0.056539
 N   7.283309   6.679841  -1.185285
 C   8.211595   7.629383  -1.133174
 N   6.768262   7.226338   1.061557
 C   7.726179   8.144482   0.987526
 N   8.488695   8.401512  -0.078822
 H   7.905469   8.741669   1.877403
 H   8.799931   7.792476  -2.032013
 C  -6.541272   6.534952   0.056689
 N  -6.734630   7.257366  -1.061838
 C  -7.687894   8.180328  -0.987627
 N  -7.250037   6.715406   1.186013
 C  -8.173656   7.669501   1.134031
 N  -8.447999   8.442086   0.079294
 H  -8.760227   7.836311   2.033342
 H  -7.865130   8.777634  -1.877835






