%nproc=15
%mem=70GB
%chk=TrisPhenyl_PrimaryAmine_Imide.chk
#P B3LYP/6-311++G(d,p) EmpiricalDispersion=GD3 opt SCF=YQC NoSymm

Comment

0 1
 C    5.413628598000000    -1.872546979000000    -0.010594081000000
 C    5.035722949999999    -0.755661278000000    0.753536436000000
 C    3.723673695000000    -0.300430655000000    0.759525264000000
 C    2.735803795999999    -0.944625681000000    0.000449131000000
 C    3.108315992000000    -2.059076085000000    -0.765208093000000
 C    4.420719166000000    -2.513357956000000    -0.770224134000000
 C    1.334053259000000    -0.458848890000000    0.000402830000000
 C    0.268355259000000    -1.366873890000000    0.008860830000000
 C    -1.059173741000000    -0.922488890000000    0.008337830000000
 C    -1.309241741000000    0.453656110000000    0.006809830000000
 C    -0.264218741000000    1.383363110000000    0.003920830000000
 C    1.053270259000000    0.911980110000000    -0.001354170000000
 C    -0.547166741000000    2.832910110000000    0.023508830000000
 C    0.132648259000000    3.710843110000000    -0.833951170000000
 C    -0.134981741000000    5.073690110000000    -0.817152170000000
 C    -1.095013741000000    5.616633110000000    0.054395830000000
 C    -1.773249741000000    4.731796110000000    0.910653830000000
 C    -1.504821741000000    3.368908110000000    0.897304830000000
 C    -2.182774741000000    -1.891955890000000    -0.017346170000000
 C    -3.315488741000000    -1.662366890000000    -0.812060170000000
 C    -4.366923741000000    -2.569668890000000    -0.831200170000000
 C    -4.330026741000000    -3.741083890000000    -0.056511170000000
 C    -3.194045741000000    -3.964973890000000    0.739344830000000
 C    -2.141176741000000    -3.059528890000000    0.758579830000000
 H    0.474380259000000    -2.429560890000000    -0.040814170000000
 H    1.873134259000000    1.618471110000000    0.074149830000000
 H    -2.335361741000000    0.804210110000000    -0.020704170000000
 H    0.839454259000000    3.316212110000000    -1.556644170000000
 H    -2.004881741000000    2.721095110000000    1.609926830000000
 H    0.396903259000000    5.726432110000000    -1.500808170000000
 H    -2.509284741000000    5.119474110000000    1.606548830000000
 H    4.680359519000000    -3.384593294000000    -1.361290287000000
 H    2.355934167000000    -2.588063678000000    -1.339179593000000
 H    5.783140304000000    -0.232983007000000    1.339887964000000
 H    3.464345167000000    0.579450163000000    1.337108744000000
 H    -1.287700741000000    -3.244167890000000    1.400987830000000
 H    -3.142543741000000    -4.854378890000000    1.357384830000000
 H    -5.225637741000000    -2.375433890000000    -1.464217170000000
 H    -3.358715741000000    -0.779456890000000    -1.439657170000000
 C    8.701080971000000    -3.423929616000000    -0.582044339000000
 C    9.672596108000000    -4.202664553000000    -1.183839812000000
 H    9.449885138000001    -4.794233577000000    -2.066379891000000
 C    10.948210457000000    -4.194769134000000    -0.611301359000000
 H    11.742539284999999    -4.793339351000000    -1.054045497000000
 C    11.218467038000000    -3.419385268000000    0.533854106000000
 H    12.218502015999999    -3.427773728000000    0.964107462000000
 C    10.217139069000000    -2.640266623000000    1.121524599000000
 H    10.410595756999999    -2.037805462000000    2.003602547000000
 C    8.965444573999999    -2.665365245000000    0.534110292000000
 C    7.735513758000000    -1.972925314000000    0.902518600000000
 C    7.300657895000000    -3.220609903000000    -0.936215333000000
 N    6.767135760000000    -2.339145804000000    -0.014074594000000
 O    6.823223795000000    -3.782436227000000    -1.906300416000000
 O    7.708822868000000    -1.241897835000000    1.876923650000000
 C    -1.470381094000000    9.232249116000000    -0.517536716000000
 C    -1.356472328000000    10.456554662000000    -1.150409752000000
 H    -0.839586560000000    10.550770175000000    -2.100348495000000
 C    -1.933763844000000    11.562466896000000    -0.518945406000000
 H    -1.867665657000000    12.544902609999999    -0.983399990000000
 C    -2.601792135000000    11.420113089999999    0.713577776000000
 H    -3.044004549000000    12.294212454000000    1.188611201000000
 C    -2.702782956000000    10.169667666000002    1.331013821000000
 H    -3.214469699000000    10.044677081000000    2.280224270000000
 C    -2.124385433000000    9.092910605000000    0.684117263000000
 C    -2.062224346000000    7.685740165000000    1.063504801000000
 C    -0.986838574000000    7.914864656000000    -0.915840126000000
 N    -1.370507036000000    7.021497467000000    0.067349553000000
 O    -0.378464807000000    7.772834900000000    -1.961959677000000
 O    -2.563698856000000    7.306850612000000    2.107317429000000
 C    -7.306907892000000    -5.816108849000000    -0.667360266000000
 C    -8.453301739000000    -6.275381563000000    -1.289676325000000
 H    -8.832175318999999    -5.799625855000000    -2.188866179000000
 C    -9.099901373000000    -7.374151389999999    -0.715508783000000
 H    -10.005406278000001    -7.768027621000000    -1.173972899000000
 C    -8.592164330999999    -7.979178234000000    0.451446834000000
 H    -9.111239240000000    -8.833549294000001    0.882572804000000
 C    -7.430149460000000    -7.494522026000000    1.059616195000000
 H    -7.027172613999999    -7.950436838000001    1.958614411000000
 C    -6.810070201000000    -6.408048645000000    0.470123257000000
 C    -5.603136808000000    -5.685519459000000    0.856375653000000
 C    -6.420249660000000    -4.711915505000000    -1.017438868000000
 N    -5.412322190000000    -4.678165460000000    -0.071441237000000
 O    -6.643558747000000    -4.032042134000000    -2.003624681000000
 O    -4.980756973000000    -6.014022977000000    1.851015065000000




