%nproc=15
%mem=70GB
%chk=N-TrisPhenyl_Aldehyde_Imine_freq.chk
#P B3LYP/6-311++G(d,p) EmpiricalDispersion=GD3 freq(noraman) SCF=YQC

Restart from N-TrisPhenyl_Aldehyde_Imine.log

0 1
 N   0.000118  -0.000148   0.277413
 C  -1.004648  -0.999088   0.290588
 C   1.367559  -0.370769   0.290417
 C  -0.362707   1.369379   0.290308
 C   1.817613  -1.450789  -0.489548
 C  -2.164832  -0.848992  -0.489613
 C   0.347256   2.299069  -0.490046
 C   2.289953   0.333495   1.074625
 C   3.151460  -1.816949  -0.478659
 H   1.108532  -1.992771  -1.103209
 C  -0.856180  -2.149695   1.075331
 C  -3.148963  -1.820958  -0.478547
 H  -2.279507   0.035927  -1.103523
 C  -1.433558   1.816138   1.074820
 C  -0.002592   3.637288  -0.479218
 H   1.171014   1.955911  -1.103876
 C   3.629264  -0.033089   1.071529
 H   1.952259   1.164915   1.680566
 C   4.084015  -1.113069   0.302656
 H   3.500343  -2.643753  -1.085156
 C  -1.843398  -3.126204   1.072412
 H   0.032577  -2.272781   1.681479
 C  -3.005849  -2.980243   0.303185
 H  -4.039343  -1.709844  -1.085204
 C  -1.785812   3.159292   1.071645
 H  -1.984487   1.108041   1.681072
 C  -1.078189   4.093026   0.302414
 H   0.538802   4.352772  -1.085960
 H   4.331983   0.519164   1.687486
 H  -1.716700  -4.010700   1.688701
 H  -2.615255   3.491790   1.687818
 C   10.085767  -3.376625  -0.312065
 C   9.124323  -4.385969  -0.232829
 C   9.678931  -2.046446  -0.406687
 C   8.324771  -1.721255  -0.403502
 C   7.354134  -2.731796  -0.306166
 C   7.770332  -4.070152  -0.246957
 C   5.501160  -1.476882   0.328180
 N   5.974080  -2.470988  -0.320422
 H   9.431981  -5.423937  -0.170869
 H   10.418287  -1.257792  -0.493798
 H   8.013804  -0.688283  -0.511170
 H   7.014687  -4.845521  -0.201077
 H   6.142315  -0.845202   0.959338
 H   11.140506  -3.626181  -0.316467
 C  -7.967909  -7.045158  -0.312330
 C  -8.360824  -5.707667  -0.233859
 C  -6.612594  -7.358494  -0.406085
 C  -5.653488  -6.348733  -0.402780
 C  -6.042854  -5.002673  -0.306205
 C  -7.409914  -4.693373  -0.247879
 C  -4.029592  -4.025553   0.328738
 N  -5.126619  -3.938214  -0.320469
 H  -9.413495  -5.454685  -0.172598
 H  -6.299645  -8.393281  -0.492617
 H  -4.603465  -6.596378  -0.509770
 H  -7.703194  -3.651146  -0.202600
 H  -3.803621  -4.896261   0.960606
 H  -8.711709  -7.833519  -0.316842
 C  -2.118039   10.422706  -0.311540
 C  -0.763248   10.094422  -0.232838
 C  -3.066858   9.405516  -0.405937
 C  -2.671706   8.070089  -0.403061
 C  -1.311274   7.734443  -0.306280
 C  -0.360066   8.763831  -0.247286
 C  -1.471594   5.502246   0.328067
 N  -0.847381   6.408790  -0.320866
 H  -0.017969   10.879667  -0.171045
 H  -4.119507   9.651741  -0.492612
 H  -3.411028   7.284484  -0.510535
 H   0.689201   8.496864  -0.201817
 H  -2.338786   5.741773   0.959779
 H  -2.429052   11.460985  -0.315685






