%nproc=15
%mem=70GB
%chk=N-TrisPhenyl_Aldehyde_Imine.chk
#P B3LYP/6-311++G(d,p) EmpiricalDispersion=GD3 opt SCF=YQC

Comment

0 1
 N    0.000000000000000    0.000000000000000    0.000000000000000
 C    1.486664194000000    0.115830323000000    -0.171934194000000
 C    -0.789065806000000    1.237760323000000    0.199745806000000
 C    -0.613895806000000    -1.236089677000000    -0.038794194000000
 C    -0.462675806000000    2.500160323000000    -0.322134194000000
 C    2.176224194000000    -0.918259677000000    -0.846584194000000
 C    -1.765025806000000    -1.441179677000000    -0.822204194000000
 C    -2.007925806000000    1.140170323000000    0.910585806000000
 C    -1.297715806000000    3.610210323000000    -0.126194194000000
 H    0.438864194000000    2.642570323000000    -0.911754194000000
 C    2.273194194000000    1.157440323000000    0.348705806000000
 C    3.570374194000000    -0.927389677000000    -0.965384194000000
 H    1.632104194000000    -1.749019677000000    -1.289124194000000
 C    -0.125815806000000    -2.315259677000000    0.720105806000000
 C    -2.414125806000000    -2.677449677000000    -0.833324194000000
 H    -2.163745806000000    -0.629609677000000    -1.426834194000000
 C    -2.865415806000000    2.233870323000000    1.065575806000000
 H    -2.315445806000000    0.194440323000000    1.350765806000000
 C    -2.504725806000000    3.472930323000000    0.555025806000000
 H    -1.010125806000000    4.580640323000000    -0.521804194000000
 C    3.666684194000001    1.177220323000000    0.186235806000000
 H    1.821684194000000    1.969990323000000    0.911145806000000
 C    4.315594194000000    0.127230323000000    -0.457594194000000
 H    4.064904194000000    -1.761929677000000    -1.456734194000000
 C    -0.759375806000000    -3.559559677000000    0.685245806000000
 H    0.753504194000000    -2.187099677000000    1.347095806000000
 C    -1.906875806000000    -3.737209677000000    -0.084874194000000
 H    -3.314085806000000    -2.810259677000000    -1.427784194000000
 H    -3.812175806000000    2.108150323000000    1.585245806000000
 H    4.245704194000000    2.009030323000000    0.578395806000000
 H    -0.358405806000000    -4.386819677000000    1.264815806000000
 C    -5.762947983000001    9.030695436000000    0.770369041000000
 C    -4.387505077000000    9.192629083000000    0.946992800000000
 C    -6.269361737000000    7.778206865000000    0.425429377000000
 C    -5.414713110000000    6.689003085000000    0.276344875000000
 C    -4.032286732000000    6.843451480000000    0.470181634000000
 C    -3.525902029000000    8.114079740999999    0.781005532000000
 C    -3.395863485000000    4.622405019000000    0.743751419000000
 N    -3.114940275000000    5.791297381000000    0.313594043000000
 H    -3.984726002000000    10.166085854000002    1.203617037000000
 H    -7.333623582000000    7.649594564000000    0.261540137000000
 H    -5.809828606000000    5.725416511000000    -0.024625123000000
 H    -2.455099451000000    8.229701919000000    0.900107171000000
 H    -4.323450635000000    4.419540271000000    1.297031575000000
 H    -6.431227832000000    9.876322144000000    0.884601507000000
 C    10.622685256000000    -0.322491201000000    -1.710387234000000
 C    10.050202021999999    -1.537121405000000    -1.328028685000000
 C    9.804201809000000    0.784801236000000    -1.929827861000000
 C    8.426547622999999    0.689530036000000    -1.750920959000000
 C    7.848205817000000    -0.525726612000000    -1.349421615000000
 C    8.673499569000001    -1.645015104000000    -1.166073219000000
 C    5.770881503000000    0.220502683000000    -0.614038796000000
 N    6.464857568000000    -0.693945494000000    -1.173005991000000
 H    10.678725066000000    -2.405882231000000    -1.167036524000000
 H    10.238201471000000    1.725100776000000    -2.251596648000000
 H    7.791623951000000    1.544110505000000    -1.955279549000000
 H    8.215118063000000    -2.585666444000000    -0.884589115000000
 H    6.236423165999999    1.127334309000000    -0.203407186000000
 H    11.694480307999999    -0.244689404000000    -1.851574303000000
 C    -5.265366396000000    -9.178074605000001    -0.902594997000000
 C    -6.073031775000000    -8.044186692000000    -0.796592708000000
 C    -3.880754221000000    -9.031723733000000    -0.977404276000000
 C    -3.301981927000000    -7.766209719000000    -0.927281906000000
 C    -4.109624277000000    -6.623921565000000    -0.803099390000000
 C    -5.503512824999999    -6.776175990000000    -0.765331057000000
 C    -2.528579003000000    -5.065373178000000    -0.107294014000000
 N    -3.590459086000000    -5.319161742000000    -0.769309592000000
 H    -7.151245482000000    -8.148979123000000    -0.749914933000000
 H    -3.247801867000000    -9.905655107999999    -1.085429051000000
 H    -2.227487777000000    -7.656005455000000    -1.019562035000000
 H    -6.119760342000000    -5.887369438000000    -0.698744564000000
 H    -2.029611174000000    -5.834578827000000    0.498548153000000
 H    -5.712231687000000    -10.164695531000000    -0.942870304000000




