%nproc=15
%mem=70GB
%chk=2_Phenyl_Aldehyde_Azine.chk
#P B3LYP/6-311++G(d,p) EmpiricalDispersion=GD3 opt SCF=YQC

Comment

0 1
 C    -0.000013000000000    -1.415145000000000    0.000000000000000
 C    0.000013000000000    1.415145000000000    0.000000000000000
 C    -1.206999000000000    -0.694755000000000    0.000000000000000
 C    1.206999000000000    0.694755000000000    0.000000000000000
 C    -1.206984000000000    0.694770000000000    0.000000000000000
 C    1.206984000000000    -0.694770000000000    0.000000000000000
 H    2.148535000000000    -1.233078000000000    0.000000000000000
 H    -2.148535000000000    1.233078000000000    0.000000000000000
 H    2.148565000000000    1.233036000000000    0.000000000000000
 H    -2.148565000000000    -1.233036000000000    0.000000000000000
 C    0.040545427000000    -2.889422436000000    0.005131725000000
 N    -1.030652602000000    -3.617741955000000    -0.028710850000000
 H    1.041177130000000    -3.358764481000000    0.035735979000000
 N    -0.698223930000000    -4.970653139000000    -0.034808301000000
 C    -1.762026802000000    -5.708518154000000    -0.076447726000000
 C    -1.695409941000000    -7.181993680000000    -0.116634944000000
 H    -2.768862154000000    -5.252236890000000    -0.089667564000000
 C    -2.888631037000000    -7.908249085000000    -0.174963818000000
 C    -2.849042491000000    -9.302912987999999    -0.230220569000000
 H    -3.849607437000000    -7.400944062000000    -0.181427272000000
 C    -1.622259760000000    -9.968205046000000    -0.226378696000000
 H    -3.774185244000000    -9.871975248000000    -0.278613304000000
 C    -0.432045315000000    -9.242506727000000    -0.165245342000000
 H    -1.593220473000000    -11.054270412999999    -0.272140168000000
 C    -0.466103614000000    -7.848077993000000    -0.110058774000000
 H    0.522913579000000    -9.762019663000000    -0.162920933000000
 H    0.464778593000000    -7.287990775000000    -0.065631802000000
 C    -0.040545427000000    2.889422436000000    0.005131725000000
 N    1.030652602000000    3.617741955000000    -0.028710850000000
 H    -1.041177130000000    3.358764481000000    0.035735979000000
 N    0.698223930000000    4.970653139000000    -0.034808301000000
 C    1.762026802000000    5.708518154000000    -0.076447726000000
 C    1.695409941000000    7.181993680000000    -0.116634944000000
 H    2.768862154000000    5.252236890000000    -0.089667564000000
 C    2.888631037000000    7.908249085000000    -0.174963818000000
 C    2.849042491000000    9.302912987999999    -0.230220569000000
 H    3.849607437000000    7.400944062000000    -0.181427272000000
 C    1.622259760000000    9.968205046000000    -0.226378696000000
 H    3.774185244000000    9.871975248000000    -0.278613304000000
 C    0.432045315000000    9.242506727000000    -0.165245342000000
 H    1.593220473000000    11.054270412999999    -0.272140168000000
 C    0.466103614000000    7.848077993000000    -0.110058774000000
 H    -0.522913579000000    9.762019663000000    -0.162920933000000
 H    -0.464778593000000    7.287990775000000    -0.065631802000000




