%nproc=15
%mem=70GB
%chk=Pyrene_H_CarboxylicAnhydride_Imide_freq.chk
#P B3LYP/6-311++G(d,p) EmpiricalDispersion=GD3 freq(noraman) SCF=YQC NoSymm

Restart from Pyrene_H_CarboxylicAnhydride_Imide.log

0 1
 C   0.001313   3.517139  -0.395860
 C  -1.209293   2.836599  -0.323768
 C  -1.230414   1.442196  -0.166933
 C   0.000265   0.712917  -0.079932
 C   1.231489   1.442377  -0.157167
 C   1.211408   2.836778  -0.314163
 H  -2.148416   3.369147  -0.388733
 H   2.150937   3.369465  -0.371673
 C  -0.000265  -0.712917   0.079932
 C  -1.231489  -1.442377   0.157167
 C  -1.211408  -2.836778   0.314163
 C  -0.001313  -3.517138   0.395860
 C   1.209293  -2.836599   0.323768
 C   1.230414  -1.442196   0.166933
 H  -2.150937  -3.369465   0.371673
 H   2.148416  -3.369146   0.388733
 C   2.433519   0.677879  -0.064252
 C   2.433032  -0.677523   0.083556
 C  -2.433032   0.677523  -0.083556
 C  -2.433519  -0.677879   0.064252
 H   0.001718   4.593973  -0.518119
 H  -0.001718  -4.593972   0.518119
 C   3.849974   1.154314  -0.111373
 C   3.849140  -1.153755   0.141870
 N   4.651893   0.000341   0.018439
 O   4.260934  -2.282448   0.266652
 O   4.262578   2.283073  -0.232838
 C   6.078453   0.000458   0.024189
 C   6.774434  -0.935515  -0.742420
 H   6.230136  -1.662164  -1.330041
 C   8.166453  -0.935517  -0.727191
 H   8.705830  -1.667205  -1.317473
 C   8.862997   0.000678   0.035438
 H   9.946873   0.000761   0.039816
 C   8.160169   0.936765   0.792410
 H   8.694644   1.668537   1.387030
 C   6.768072   0.936544   0.796390
 H   6.218933   1.663111   1.379591
 C  -3.849974  -1.154313   0.111372
 C  -3.849140   1.153755  -0.141870
 N  -4.651893  -0.000341  -0.018439
 O  -4.260934   2.282448  -0.266652
 O  -4.262578  -2.283073   0.232837
 C  -6.078453  -0.000458  -0.024189
 C  -6.774434   0.935515   0.742420
 H  -6.230137   1.662164   1.330041
 C  -8.166453   0.935516   0.727191
 H  -8.705831   1.667204   1.317473
 C  -8.862997  -0.000678  -0.035438
 H  -9.946873  -0.000762  -0.039816
 C  -8.160169  -0.936765  -0.792410
 H  -8.694644  -1.668537  -1.387030
 C  -6.768072  -0.936544  -0.796390
 H  -6.218933  -1.663111  -1.379591






