%nproc=15
%mem=70GB
%chk=N-TrisPhenyl_PrimaryAmine_Ketoenamine_freq.chk
#P B3LYP/6-311++G(d,p) EmpiricalDispersion=GD3 freq(noraman) SCF=YQC NoSymm

Restart from N-TrisPhenyl_PrimaryAmine_Ketoenamine.log

0 1
 N  -0.070506  -0.100712   0.041344
 C   1.337173  -0.026979  -0.109540
 C  -0.828896   1.085919   0.203470
 C  -0.721523  -1.359607   0.010445
 C  -0.537939   2.231635  -0.547525
 C   2.001111  -0.826436  -1.048252
 C  -1.928083  -1.526805  -0.680604
 C  -1.892524   1.140036   1.114440
 C  -1.273897   3.398881  -0.388905
 H   0.271325   2.203525  -1.266907
 C   2.098368   0.852431   0.672277
 C   3.380648  -0.762310  -1.196815
 H   1.427164  -1.501720  -1.670993
 C  -0.170659  -2.469461   0.665280
 C  -2.573696  -2.756291  -0.708865
 H  -2.360827  -0.683540  -1.204886
 C  -2.635793   2.300609   1.267370
 H  -2.134525   0.264462   1.704194
 C  -2.333366   3.452098   0.526349
 H  -1.033841   4.253275  -1.009083
 C   3.474454   0.926588   0.518730
 H   1.603920   1.480269   1.403292
 C   4.140028   0.114334  -0.410726
 H   3.851112  -1.378182  -1.952820
 C  -0.807356  -3.700767   0.629906
 H   0.762578  -2.361606   1.204219
 C  -2.023941  -3.862944  -0.048457
 H  -3.490520  -2.849115  -1.277217
 H  -3.448304   2.327670   1.985544
 H   4.048692   1.605380   1.140169
 H  -0.372051  -4.546024   1.152147
 H  -7.513701   6.821589   1.881203
 C  -7.151001   7.836047   1.772246
 C  -7.993343   8.923812   1.972090
 H  -9.033288   8.760805   2.232179
 C  -7.501480   10.223463   1.841750
 H  -8.156532   11.072656   2.001639
 C  -6.162750   10.426412   1.510223
 H  -5.771951   11.433643   1.419235
 C  -5.321847   9.336413   1.298590
 H  -4.281685   9.516098   1.057355
 C  -5.806441   8.027308   1.424298
 C  -4.951147   6.809747   1.225710
 O  -5.359983   5.712261   1.652667
 C  -3.687632   6.928137   0.532890
 C  -2.860308   5.855115   0.320488
 H  -3.365697   7.881861   0.143483
 N  -3.117295   4.596234   0.730314
 H  -1.923548   6.006922  -0.203653
 H  -3.999039   4.512843   1.243797
 H   9.797571   2.935745  -0.193673
 C   10.457344   2.129535  -0.489069
 C   11.829960   2.326445  -0.588252
 H   12.252067   3.302569  -0.376815
 C   12.664132   1.269576  -0.955928
 H   13.735331   1.420926  -1.029488
 C   12.115581   0.016260  -1.223449
 H   12.759592  -0.811584  -1.498107
 C   10.739176  -0.177887  -1.135122
 H   10.335479  -1.163114  -1.331924
 C   9.892390   0.877420  -0.769415
 C   8.403802   0.732675  -0.640343
 O   7.765952   1.610031  -0.026060
 C   7.740219  -0.402955  -1.240847
 C   6.384570  -0.593231  -1.157560
 H   8.306193  -1.135949  -1.795130
 N   5.533016   0.231497  -0.514512
 H   5.944875  -1.466003  -1.626760
 H   6.002224   1.023906  -0.067232
 H  -2.332112  -10.180057   0.116007
 C  -3.400260  -10.349570   0.062483
 C  -3.922201  -11.638078   0.058324
 H  -3.254361  -12.491290   0.099788
 C  -5.303037  -11.833984   0.004300
 H  -5.711420  -12.838477   0.005318
 C  -6.156426  -10.732843  -0.045683
 H  -7.230401  -10.878392  -0.075808
 C  -5.632820  -9.442196  -0.053123
 H  -6.313813  -8.600721  -0.076516
 C  -4.247657  -9.234534  -0.001974
 C  -3.618750  -7.871510   0.008951
 O  -2.428223  -7.762031   0.361948
 C  -4.393489  -6.722434  -0.403344
 C  -3.878355  -5.451409  -0.413350
 H  -5.413469  -6.842021  -0.735290
 N  -2.622315  -5.130597  -0.041557
 H  -4.509687  -4.628986  -0.730049
 H  -2.078196  -5.938290   0.274172






