%nproc=15
%mem=70GB
%chk=2_Phenyl_AmineBorane_Borazine.chk
#P B3LYP/6-311++G(d,p) EmpiricalDispersion=GD3 opt SCF=YQC NoSymm

Comment

0 1
 C    -0.000013000000000    -1.415145000000000    0.000000000000000
 C    0.000013000000000    1.415145000000000    0.000000000000000
 C    -1.206999000000000    -0.694755000000000    0.000000000000000
 C    1.206999000000000    0.694755000000000    0.000000000000000
 C    -1.206984000000000    0.694770000000000    0.000000000000000
 C    1.206984000000000    -0.694770000000000    0.000000000000000
 H    2.148535000000000    -1.233078000000000    0.000000000000000
 H    -2.148535000000000    1.233078000000000    0.000000000000000
 H    2.148565000000000    1.233036000000000    0.000000000000000
 H    -2.148565000000000    -1.233036000000000    0.000000000000000
 N    0.005816918000000    -2.873075174000000    0.016748070000000
 B    1.190349577000000    -3.677365699000000    0.576363721000000
 B    -1.171971090000000    -3.699474859000000    -0.524598686000000
 H    2.141953407000000    -3.161220054000000    1.030418688000000
 N    1.212715281000000    -5.202933391000000    0.598682250000000
 H    -2.128083630000000    -3.201513855000000    -0.989358086000000
 N    -1.180965926000000    -5.225315717000000    -0.514320838000000
 B    0.019319769000000    -5.962662899000000    0.049832927000000
 H    2.034080165000000    -5.716900958000000    0.988927811000000
 H    -1.997625581000000    -5.754678343000000    -0.893698488000000
 H    0.024693248000000    -7.143909033000000    0.062016797000000
 N    -0.005816918000000    2.873075174000000    -0.016748070000000
 B    -1.190349577000000    3.677365699000000    -0.576363721000000
 B    1.171971090000000    3.699474859000000    0.524598686000000
 H    -2.141953407000000    3.161220054000000    -1.030418688000000
 N    -1.212715281000000    5.202933391000000    -0.598682250000000
 H    2.128083630000000    3.201513855000000    0.989358086000000
 N    1.180965926000000    5.225315717000000    0.514320838000000
 B    -0.019319769000000    5.962662899000000    -0.049832927000000
 H    -2.034080165000000    5.716900958000000    -0.988927811000000
 H    1.997625581000000    5.754678343000000    0.893698488000000
 H    -0.024693248000000    7.143909033000000    -0.062016797000000




