%nproc=15
%mem=70GB
%chk=Adamantane_Aldehyde_Benzobisoxazole.chk
#P B3LYP/6-311++G(d,p) EmpiricalDispersion=GD3 opt SCF=YQC

Comment

0 1
 C    -0.000001000000000    -0.000001000000000    1.760854000000000
 C    -0.000001000000000    -0.000001000000000    -1.760853000000000
 H    0.583501000000000    -0.548807000000000    -2.343561000000000
 H    -0.583501000000000    0.548807000000000    -2.343561000000000
 C    0.925717000000000    -0.871783000000000    0.897399000000000
 C    -0.925717000000000    0.871783000000000    0.897399000000000
 C    -0.871783000000000    -0.925717000000000    -0.897399000000000
 C    0.871783000000000    0.925717000000000    -0.897399000000000
 C    1.773370000000000    0.051568000000000    -0.002829000000000
 C    -1.773370000000000    -0.051569000000000    -0.002829000000000
 C    0.051568000000000    -1.773370000000000    0.002829000000000
 C    -0.051569000000000    1.773370000000000    0.002829000000000
 H    2.340312000000000    0.633966000000000    0.562907000000000
 H    -2.340313000000000    -0.633966000000000    0.562907000000000
 H    0.633966000000000    -2.340313000000000    -0.562907000000000
 H    -0.633966000000000    2.340312000000000    -0.562907000000000
 H    2.368699000000000    -0.498341000000000    -0.571393000000000
 H    -2.368700000000000    0.498341000000000    -0.571393000000000
 H    -0.498341000000000    -2.368700000000000    0.571393000000000
 H    0.498341000000000    2.368699000000000    0.571393000000000
 H    -0.548807000000000    -0.583501000000000    2.343561000000000
 H    0.548807000000000    0.583501000000000    2.343561000000000
 H    4.043821435000000    -5.016047690000000    5.486035078000000
 C    3.900865452000001    -4.300691498000000    4.677882356000000
 C    5.021449801000000    -3.750429806000000    4.041611514000000
 H    6.019279879000000    -4.043786454000000    4.362265205000000
 C    4.880504548000000    -2.824751547000000    2.996063471000000
 H    5.744860583000000    -2.396123395000000    2.501528990000000
 C    3.585115580000000    -2.462764094000000    2.605257183000000
 N    3.142474178000000    -1.597660414000000    1.637887131000000
 C    2.504619615000000    -3.029021476000000    3.260217249000000
 O    1.367255247000000    -2.519752771000000    2.707047187000000
 C    2.599801922000000    -3.949151422000000    4.296912193000000
 H    1.722045367000000    -4.362634434000000    4.776763616000000
 C    1.824954313000000    -1.660745833000000    1.736895487000000
 H    -4.043820984000000    5.016048669000000    5.486034500000000
 C    -3.900865069000000    4.300692633000000    4.677881628000000
 C    -5.021449461000000    3.750432062000000    4.041609892000000
 H    -6.019279504000000    4.043789409000000    4.362263050000000
 C    -4.880504295000000    2.824754041000000    2.996061627000000
 H    -5.744860364000000    2.396126755000000    2.501526454000000
 C    -3.585115373000000    2.462765671000000    2.605256036000000
 N    -3.142474059000000    1.597661959000000    1.637885973000000
 C    -2.504619364000000    3.029021959000000    3.260216976000000
 O    -1.367255058000000    2.519752520000000    2.707047462000000
 C    -2.599801582000000    3.949151633000000    4.296912170000000
 H    -1.722044997000000    4.362633773000000    4.776764287000000
 C    -1.824954206000000    1.660746279000000    1.736895184000000
 H    -3.967654951000000    -5.896433626000000    -4.593429199000000
 C    -3.727099419000000    -4.914458479000000    -4.189523810000000
 C    -4.444358029000000    -3.795210468000000    -4.632425352000000
 H    -5.231534051000000    -3.920413359000000    -5.373519086000000
 C    -4.165112234000000    -2.511955874000000    -4.137252707000000
 H    -4.717223350000000    -1.643249689000000    -4.477723970000000
 C    -3.145322063000000    -2.378968715000000    -3.186390219999999
 N    -2.654238688000000    -1.275396911000000    -2.537462644000000
 C    -2.460121906000000    -3.509920635000000    -2.775853811000000
 O    -1.526061559000000    -3.123204712999999    -1.861014207000000
 C    -2.705853886000000    -4.796830059000000    -3.238363405000000
 H    -2.140234068000000    -5.649243982000000    -2.884602352000000
 C    -1.695949931000000    -1.762745159000000    -1.766868482000000
 H    3.967654951000000    5.896433626000000    -4.593429199000000
 C    3.727099419000000    4.914458479000000    -4.189523810000000
 C    4.444358029000000    3.795210468000000    -4.632425352000000
 H    5.231534051000000    3.920413359000000    -5.373519086000000
 C    4.165112234000000    2.511955874000000    -4.137252707000000
 H    4.717223350000000    1.643249689000000    -4.477723970000000
 C    3.145322063000000    2.378968715000000    -3.186390219999999
 N    2.654238688000000    1.275396911000000    -2.537462644000000
 C    2.460121906000000    3.509920635000000    -2.775853811000000
 O    1.526061559000000    3.123204712999999    -1.861014207000000
 C    2.705853886000000    4.796830059000000    -3.238363405000000
 H    2.140234068000000    5.649243982000000    -2.884602352000000
 C    1.695949931000000    1.762745159000000    -1.766868482000000




