%nproc=15
%mem=70GB
%chk=2_Phenyl_PrimaryAmine_Ketoenamine.chk
#P B3LYP/6-311++G(d,p) EmpiricalDispersion=GD3 opt SCF=YQC NoSymm

Comment

0 1
 C    -0.000013000000000    -1.415145000000000    0.000000000000000
 C    0.000013000000000    1.415145000000000    0.000000000000000
 C    -1.206999000000000    -0.694755000000000    0.000000000000000
 C    1.206999000000000    0.694755000000000    0.000000000000000
 C    -1.206984000000000    0.694770000000000    0.000000000000000
 C    1.206984000000000    -0.694770000000000    0.000000000000000
 H    2.148535000000000    -1.233078000000000    0.000000000000000
 H    -2.148535000000000    1.233078000000000    0.000000000000000
 H    2.148565000000000    1.233036000000000    0.000000000000000
 H    -2.148565000000000    -1.233036000000000    0.000000000000000
 H    2.587890185000000    -7.376073723000000    -0.135347646000000
 C    1.668768714000000    -7.953680719000000    -0.048666070000000
 C    1.748041881000000    -9.348964389000001    -0.020301234000000
 H    2.716754102000000    -9.838644925000001    -0.083887148000000
 C    0.587810015000000    -10.110079808000002    0.090529017000000
 H    0.647645817000000    -11.195549346000000    0.112089415000000
 C    -0.649381529000000    -9.477337031999999    0.179517827000000
 H    -1.555410102000000    -10.072195133999999    0.271924119000000
 C    -0.731097153000000    -8.080337333999999    0.156230662000000
 H    -1.718482622000000    -7.642996468000000    0.247607407000000
 C    0.428048712000000    -7.300621089999999    0.033537642000000
 C    0.414850125000000    -5.803278781000000    0.068127913000000
 O    1.419014741000000    -5.195047741000001    0.432766820000000
 C    -0.793553818000000    -5.068568762000000    -0.404347789000000
 C    -0.877580124000000    -3.730374086000000    -0.403338528000000
 H    -1.640228156000000    -5.624286917000000    -0.777198396000000
 N    0.062340133000000    -2.818410332000000    -0.005232398000000
 H    -1.799429400000000    -3.290276323000000    -0.769730111000000
 H    0.941131809000000    -3.237324255000000    0.312720869000000
 H    -2.587890185000000    7.376073723000000    0.135347646000000
 C    -1.668768714000000    7.953680719000000    0.048666070000000
 C    -1.748041881000000    9.348964389000001    0.020301234000000
 H    -2.716754102000000    9.838644925000001    0.083887148000000
 C    -0.587810015000000    10.110079808000002    -0.090529017000000
 H    -0.647645817000000    11.195549346000000    -0.112089415000000
 C    0.649381529000000    9.477337031999999    -0.179517827000000
 H    1.555410102000000    10.072195133999999    -0.271924119000000
 C    0.731097153000000    8.080337333999999    -0.156230662000000
 H    1.718482622000000    7.642996468000000    -0.247607407000000
 C    -0.428048712000000    7.300621089999999    -0.033537642000000
 C    -0.414850125000000    5.803278781000000    -0.068127913000000
 O    -1.419014741000000    5.195047741000001    -0.432766820000000
 C    0.793553818000000    5.068568762000000    0.404347789000000
 C    0.877580124000000    3.730374086000000    0.403338528000000
 H    1.640228156000000    5.624286917000000    0.777198396000000
 N    -0.062340133000000    2.818410332000000    0.005232398000000
 H    1.799429400000000    3.290276323000000    0.769730111000000
 H    -0.941131809000000    3.237324255000000    -0.312720869000000




