%nproc=15
%mem=70GB
%chk=2_Phenyl_Aldehyde_Benzobisoxazole.chk
#P B3LYP/6-311++G(d,p) EmpiricalDispersion=GD3 opt SCF=YQC

Comment

0 1
 C    -0.000013000000000    -1.415145000000000    0.000000000000000
 C    0.000013000000000    1.415145000000000    0.000000000000000
 C    -1.206999000000000    -0.694755000000000    0.000000000000000
 C    1.206999000000000    0.694755000000000    0.000000000000000
 C    -1.206984000000000    0.694770000000000    0.000000000000000
 C    1.206984000000000    -0.694770000000000    0.000000000000000
 H    2.148535000000000    -1.233078000000000    0.000000000000000
 H    -2.148535000000000    1.233078000000000    0.000000000000000
 H    2.148565000000000    1.233036000000000    0.000000000000000
 H    -2.148565000000000    -1.233036000000000    0.000000000000000
 H    1.167244000000000    -8.236946358999999    -0.231567383000000
 C    0.641212785000000    -7.285233932000000    -0.178498243000000
 C    -0.758800909000000    -7.276641060000000    -0.121703714000000
 H    -1.302629600000000    -8.219347257000001    -0.131560514000000
 C    -1.474805496000000    -6.071431527000000    -0.052972897000000
 H    -2.558035365000000    -6.060295395000000    -0.009535152000000
 C    -0.750151155000000    -4.872848393000000    -0.044510818000000
 N    -1.165238815000000    -3.567202352000000    0.011446804000000
 C    0.632229960000000    -4.925021377000000    -0.102752338000000
 O    1.099590904000000    -3.644311153000000    -0.085302203000000
 C    1.378958470000000    -6.094799206000000    -0.169472350000000
 H    2.460416244000000    -6.081015176000000    -0.213531876000000
 C    -0.037877529000000    -2.875985794000000    -0.018838811000000
 H    -1.167244000000000    8.236946358999999    -0.231567383000000
 C    -0.641212785000000    7.285233932000000    -0.178498243000000
 C    0.758800909000000    7.276641060000000    -0.121703714000000
 H    1.302629600000000    8.219347257000001    -0.131560514000000
 C    1.474805496000000    6.071431527000000    -0.052972897000000
 H    2.558035365000000    6.060295395000000    -0.009535152000000
 C    0.750151155000000    4.872848393000000    -0.044510818000000
 N    1.165238815000000    3.567202352000000    0.011446804000000
 C    -0.632229960000000    4.925021377000000    -0.102752338000000
 O    -1.099590904000000    3.644311153000000    -0.085302203000000
 C    -1.378958470000000    6.094799206000000    -0.169472350000000
 H    -2.460416244000000    6.081015176000000    -0.213531876000000
 C    0.037877529000000    2.875985794000000    -0.018838811000000




