%nproc=15
%mem=70GB
%chk=F_Ketoenamine_Ketoenamine.chk
#P B3LYP/6-311++G(d,p) EmpiricalDispersion=GD3 opt SCF=YQC NoSymm

Comment

0 1
 F    1.342850000000000    -2.363239000000000    -0.181050000000000
 C    0.684160000000000    -1.200169000000000    -0.092040000000000
 C    -0.709070000000000    -1.188689000000000    -0.034700000000000
 F    -1.391880000000000    -2.340709000000000    -0.068500000000000
 C    -1.404610000000000    0.011571000000000    0.057810000000000
 C    -0.684160000000000    1.200171000000000    0.092040000000000
 F    -1.342850000000000    2.363241000000000    0.181050000000000
 C    0.709070000000000    1.188691000000000    0.034700000000000
 F    1.391880000000000    2.340711000000000    0.068500000000000
 C    1.404610000000000    -0.011579000000000    -0.057810000000000
 C    -2.898897003000000    0.118925661000000    0.101020444000000
 O    -3.427634667000000    1.140306385000000    0.535152917000000
 C    -3.726459271000000    -1.015924300000000    -0.399507727000000
 C    -5.066440312000000    -1.015229087000000    -0.351792362000000
 H    -3.240157026000000    -1.876600148000000    -0.832456787000000
 N    -5.901092124000000    -0.040355780000000    0.124227447000000
 H    -5.577905594000000    -1.888275054000000    -0.744130131000000
 C    -7.299848019999999    -0.007297331000000    0.320494373000000
 H    -5.415231427000000    0.793495058000000    0.466995773000000
 C    -8.106904330000001    -1.152582424000000    0.298032378000000
 C    -7.940792506000000    1.237747934000000    0.415920818000000
 C    -9.501630630999999    -1.060202270000000    0.369666312000000
 H    -7.671836557000000    -2.143421505000000    0.229622795000000
 C    -10.115735575000000    0.184326541000000    0.463781253000000
 H    -10.103960597000000    -1.964616965000000    0.351918937000000
 C    -9.334740471000000    1.335483684000000    0.487005453000000
 H    -7.352331947000000    2.152194247000000    0.433211225000000
 H    -11.198481709000001    0.255915981000000    0.518825153000000
 H    -9.806510766000001    2.311668395000000    0.559423143000000
 C    2.898897003000000    -0.118925661000000    -0.101020444000000
 O    3.427634667000000    -1.140306385000000    -0.535152917000000
 C    3.726459271000000    1.015924300000000    0.399507727000000
 C    5.066440312000000    1.015229087000000    0.351792362000000
 H    3.240157026000000    1.876600148000000    0.832456787000000
 N    5.901092124000000    0.040355780000000    -0.124227447000000
 H    5.577905594000000    1.888275054000000    0.744130131000000
 C    7.299848019999999    0.007297331000000    -0.320494373000000
 H    5.415231427000000    -0.793495058000000    -0.466995773000000
 C    8.106904330000001    1.152582424000000    -0.298032378000000
 C    7.940792506000000    -1.237747934000000    -0.415920818000000
 C    9.501630630999999    1.060202270000000    -0.369666312000000
 H    7.671836557000000    2.143421505000000    -0.229622795000000
 C    10.115735575000000    -0.184326541000000    -0.463781253000000
 H    10.103960597000000    1.964616965000000    -0.351918937000000
 C    9.334740471000000    -1.335483684000000    -0.487005453000000
 H    7.352331947000000    -2.152194247000000    -0.433211225000000
 H    11.198481709000001    -0.255915981000000    -0.518825153000000
 H    9.806510766000001    -2.311668395000000    -0.559423143000000




