%nproc=15
%mem=70GB
%chk=Pyrene_Ketoenamine_Ketoenamine_freq.chk
#P B3LYP/6-311++G(d,p) EmpiricalDispersion=GD3 freq(noraman) SCF=YQC NoSymm

Restart from Pyrene_Ketoenamine_Ketoenamine.log

0 1
 C  -0.019075   3.530241  -0.043176
 C  -1.223496   2.818495  -0.012917
 C  -1.240275   1.418958   0.009739
 C  -0.003670   0.710861  -0.008050
 C   1.225339   1.434017  -0.037559
 C   1.192662   2.830927  -0.046203
 H  -2.170925   3.342708   0.017662
 H   2.114946   3.399286  -0.055163
 C   0.003798  -0.710870   0.008057
 C  -1.225211  -1.434026   0.037565
 C  -1.192534  -2.830936   0.046209
 C   0.019203  -3.530250   0.043183
 C   1.223624  -2.818504   0.012924
 C   1.240403  -1.418967  -0.009732
 H  -2.114818  -3.399295   0.055169
 H   2.171053  -3.342718  -0.017656
 C   2.457772   0.693365  -0.058004
 C   2.464526  -0.665323  -0.047052
 H   3.389837   1.247627  -0.082325
 H   3.403708  -1.208469  -0.063149
 C  -2.464398   0.665314   0.047058
 C  -2.457644  -0.693374   0.058011
 H  -3.403580   1.208460   0.063156
 H  -3.389709  -1.247636   0.082332
 C   0.041216   5.031024  -0.049603
 O   1.113848   5.590036   0.247486
 C  -1.132697   5.790763  -0.419703
 C  -1.152528   7.161354  -0.426570
 H  -2.029525   5.284327  -0.742615
 N  -0.108204   7.946515  -0.091180
 H  -2.057599   7.672836  -0.733268
 C  -0.068901   9.347819  -0.046281
 H   0.737401   7.417793   0.137170
 C  -1.217695   10.147555  -0.113212
 C   1.184494   9.963332   0.085614
 C  -1.102884   11.534360  -0.067988
 H  -2.201253   9.700580  -0.182141
 C   0.143538   12.145371   0.057182
 H  -2.000665   12.139977  -0.120391
 C   1.285473   11.348385   0.138707
 H   2.076003   9.347693   0.139868
 H   0.223451   13.225039   0.096336
 H   2.262876   11.806185   0.240263
 C  -0.041088  -5.031034   0.049609
 O  -1.113720  -5.590045  -0.247480
 C   1.132826  -5.790772   0.419709
 C   1.152658  -7.161363   0.426572
 H   2.029653  -5.284336   0.742624
 N   0.108336  -7.946525   0.091177
 H   2.057730  -7.672844   0.733271
 C   0.069036  -9.347829   0.046276
 H  -0.737267  -7.417804  -0.137177
 C   1.217828  -10.147565   0.113224
 C  -1.184358  -9.963341  -0.085640
 C   1.103017  -11.534370   0.067996
 H   2.201385  -9.700590   0.182171
 C  -0.143402  -12.145381  -0.057195
 H   2.000798  -12.139988   0.120413
 C  -1.285336  -11.348394  -0.138737
 H  -2.075866  -9.347703  -0.139908
 H  -0.223315  -13.225049  -0.096352
 H  -2.262738  -11.806194  -0.240309






