%nproc=15
%mem=70GB
%chk=An_Cyanohydrine_Benzobisoxazole_freq.chk
#P B3LYP/6-311++G(d,p) EmpiricalDispersion=GD3 freq(noraman) SCF=YQC

Restart from An_Cyanohydrine_Benzobisoxazole.log

0 1
 C   3.612597   0.800847   0.000016
 C   3.614570  -0.625465   0.000017
 C   2.495514  -1.393160   0.000011
 C   1.240966  -0.702199   0.000023
 C   2.431319   1.493354   0.000022
 C   1.212278   0.752274   0.000024
 C   0.030325  -1.399348   0.000028
 C  -1.212277  -0.752274   0.000023
 C  -0.030325   1.399348   0.000029
 C  -1.240965   0.702199   0.000023
 C  -2.431319  -1.493354   0.000021
 C  -3.612597  -0.800847   0.000016
 C  -3.614570   0.625465   0.000018
 C  -2.495514   1.393160   0.000013
 H   2.533713  -2.475171   0.000009
 H   2.417102   2.576510  -0.000000
 H   0.051379  -2.484662   0.000043
 H  -0.051379   2.484662   0.000046
 H  -2.417101  -2.576510  -0.000003
 H  -2.533712   2.475171   0.000011
 N   4.936443   1.237564   0.000007
 O   4.930639  -1.025170   0.000009
 C   5.650357   0.158439  -0.000001
 C   7.734966  -1.201775  -0.000127
 C   9.124322  -1.279333  -0.000143
 H   7.135579  -2.103037  -0.000201
 C   9.891873  -0.115197  -0.000042
 H   9.608119  -2.249264  -0.000235
 C   9.265416   1.133113   0.000079
 H   10.974122  -0.178944  -0.000057
 C   7.879161   1.219879   0.000095
 H   9.860623   2.038989   0.000162
 H   7.379933   2.180674   0.000187
 C   7.103837   0.050101  -0.000009
 N  -4.936443  -1.237565   0.000006
 O  -4.930639   1.025170   0.000010
 C  -5.650357  -0.158439  -0.000001
 C  -7.734966   1.201775  -0.000125
 C  -9.124322   1.279333  -0.000141
 H  -7.135579   2.103037  -0.000199
 C  -9.891873   0.115197  -0.000042
 H  -9.608119   2.249264  -0.000233
 C  -9.265416  -1.133113   0.000078
 H  -10.974122   0.178944  -0.000056
 C  -7.879161  -1.219879   0.000094
 H  -9.860623  -2.038989   0.000160
 H  -7.379933  -2.180674   0.000185
 C  -7.103837  -0.050101  -0.000009






