%nproc=15
%mem=70GB
%chk=3_Phenyl_Double_Catechol_BoronateEster_freq.chk
#P B3LYP/6-311++G(d,p) EmpiricalDispersion=GD3 freq(noraman) SCF=YQC

Restart from 3_Phenyl_Double_Catechol_BoronateEster.log

0 1
 C   0.689728  -1.208529  -0.000004
 C   1.391402   0.006438  -0.000004
 C   0.701678   1.201476  -0.000004
 C  -0.701356   1.201664  -0.000004
 C  -1.391400   0.006811  -0.000004
 C  -0.690052  -1.208344  -0.000004
 B   2.852921  -1.647722  -0.000008
 C   4.182087  -2.415296  -0.000002
 C   5.407267  -1.727221  -0.000001
 C   4.198770  -3.820353   0.000002
 C   6.613029  -2.422400   0.000003
 C   5.403694  -4.516993   0.000006
 C   6.611538  -3.817948   0.000007
 O   2.738714  -0.256165  -0.000004
 O   1.590549  -2.244285  -0.000001
 H   7.552404  -1.880953   0.000004
 H   5.404456  -5.601238   0.000009
 H   3.259882  -4.363304   0.000001
 H   5.408024  -0.642647  -0.000004
 H   7.550773  -4.360226   0.000010
 B   0.000442   3.294465  -0.000007
 C   0.000647   4.829331  -0.000001
 C  -1.207737   5.546478   0.000001
 C   1.209223   5.546155   0.000001
 C  -1.208391   6.938289   0.000006
 C   1.210250   6.937965   0.000005
 C   0.001023   7.634618   0.000008
 O  -1.147576   2.499768  -0.000002
 O   1.148246   2.499460  -0.000002
 H  -2.146915   7.481208   0.000007
 H   2.148920   7.480633   0.000007
 H   2.148805   5.004404  -0.000000
 H  -2.147463   5.004979  -0.000000
 H   0.001168   8.719157   0.000011
 B  -2.853362  -1.646957  -0.000007
 C  -4.182734  -2.414175  -0.000002
 C  -4.199794  -3.819227   0.000002
 C  -5.407730  -1.725772  -0.000001
 C  -5.404904  -4.515545   0.000006
 C  -6.613678  -2.420628   0.000003
 C  -6.612561  -3.816177   0.000007
 O  -1.591151  -2.243858  -0.000001
 O  -2.738782  -0.255431  -0.000004
 H  -5.405957  -5.599790   0.000008
 H  -7.552908  -1.878930   0.000004
 H  -5.408197  -0.641197  -0.000003
 H  -3.261051  -4.362430   0.000001
 H  -7.551940  -4.358203   0.000010






