%nproc=15
%mem=70GB
%chk=TPG_PrimaryAmine_Imide_freq.chk
#P B3LYP/6-311++G(d,p) EmpiricalDispersion=GD3 freq(noraman) SCF=YQC NoSymm

Restart from TPG_PrimaryAmine_Imide.log

0 1
 C   1.203878  -0.739696  -0.136384
 C  -0.047087  -1.367447  -0.127172
 O  -0.181444  -2.711568  -0.217276
 C  -1.214313  -0.592020  -0.042355
 C  -1.133773   0.805199  -0.060579
 O  -2.235253   1.591805  -0.089294
 C   0.123476   1.429827  -0.070172
 C   1.290248   0.661423  -0.154972
 O   2.516843   1.221720  -0.275327
 H  -2.885916   1.185727  -0.692127
 H   2.449010   1.978753  -0.886882
 H   0.465926  -3.041210  -0.868396
 C   4.138116  -2.902095  -0.720878
 C   4.956888  -3.831723  -1.340148
 H   4.619282  -4.377272  -2.212752
 C   6.228992  -4.030396  -0.792565
 H   6.903212  -4.744566  -1.250876
 C   6.645364  -3.324150   0.341034
 H   7.635488  -3.503366   0.743908
 C   5.804530  -2.394603   0.963654
 H   6.112498  -1.846517   1.845602
 C   4.552955  -2.197196   0.406357
 C   3.442416  -1.305976   0.843072
 C   2.751785  -2.484222  -1.048855
 N   2.409796  -1.491675  -0.131461
 O   2.007635  -2.933447  -1.903706
 O   3.368210  -0.597262   1.807599
 C  -4.584176  -2.060934  -0.379690
 C  -5.837230  -2.314574  -0.912269
 H  -6.198980  -1.763426  -1.771581
 C  -6.606328  -3.307479  -0.295669
 H  -7.590356  -3.541117  -0.685239
 C  -6.127545  -4.002946   0.819805
 H  -6.748987  -4.763810   1.277701
 C  -4.863318  -3.730162   1.354649
 H  -4.484051  -4.256684   2.221832
 C  -4.106219  -2.754542   0.729423
 C  -2.753316  -2.231769   1.068237
 C  -3.554230  -1.074892  -0.793110
 N  -2.464644  -1.260318   0.056821
 O  -3.628777  -0.219698  -1.658776
 O  -2.039237  -2.506822   1.991605
 C   0.507996   5.077008  -0.491759
 C   0.876122   6.280557  -1.069736
 H   1.475206   6.304898  -1.971703
 C   0.440970   7.452483  -0.441399
 H   0.702121   8.415320  -0.864965
 C  -0.324104   7.402913   0.728814
 H  -0.642631   8.328521   1.194177
 C  -0.681022   6.180156   1.308631
 H  -1.267092   6.128437   2.217982
 C  -0.255409   5.027111   0.671999
 C  -0.453652   3.599579   1.047729
 C   0.820560   3.685766  -0.905083
 N   0.174662   2.848166   0.003345
 O   1.539035   3.309425  -1.815263
 O  -0.984888   3.133145   2.016431






