%nproc=15
%mem=70GB
%chk=TPG_PrimaryAmine_Imide.chk
#P B3LYP/6-311++G(d,p) EmpiricalDispersion=GD3 opt SCF=YQC NoSymm

Comment

0 1
 C    1.214670000000000    -0.706990000000000    -0.100210000000000
 C    -0.003630000000000    -1.377070000000000    -0.034780000000000
 O    -0.065580000000000    -2.740060000000000    -0.060670000000000
 C    -1.202870000000000    -0.677230000000000    0.059480000000000
 C    -1.171390000000000    0.714080000000000    0.087980000000000
 O    -2.318460000000000    1.447630000000000    0.179540000000000
 C    0.034640000000000    1.405600000000000    0.023800000000000
 C    1.221460000000000    0.684370000000000    -0.070160000000000
 O    2.430470000000000    1.313820000000000    -0.136030000000000
 H    -3.072450000000000    0.835100000000000    0.215630000000000
 H    2.278920000000000    2.273550000000000    -0.105640000000000
 H    0.839910000000000    -3.087250000000000    -0.127960000000000
 C    4.026969725000000    -3.059758763000000    -0.410268046000000
 C    4.694451507000000    -4.248394219000000    -0.642736064000000
 H    4.154950095000000    -5.150968229000000    -0.912420064000000
 C    6.087065562000000    -4.238341450000000    -0.517917720000000
 H    6.651530332000000    -5.152678185000000    -0.692945782000000
 C    6.769927651000000    -3.056412786000001    -0.168083759000000
 H    7.854614360000000    -3.070381250000000    -0.075791301000000
 C    6.069677001000000    -1.867963476000000    0.060558838000000
 H    6.582119287000000    -0.949819983000000    0.330488228000000
 C    4.693582123000000    -1.905734902000000    -0.071201653000000
 C    3.699727436000000    -0.851194411000000    0.096502742000000
 C    2.602278803000000    -2.750899500000000    -0.463395464000000
 N    2.460186578000000    -1.410997010000000    -0.152848392000000
 O    1.795426131000000    -3.615737536000000    -0.756143041000000
 O    4.043456355000000    0.273832576000000    0.413903893000000
 C    -4.687685821000000    -1.853358525000000    -0.056567274000000
 C    -6.058290144000000    -1.809798212000000    -0.235379600000000
 H    -6.556907190000000    -0.890354901000000    -0.525958532000000
 C    -6.771232154000000    -2.994715362000000    -0.028643970000000
 H    -7.852008306000000    -3.004456755000000    -0.159391740000000
 C    -6.106100444000000    -4.178779885000000    0.347162911000000
 H    -6.680176403999999    -5.090507366000000    0.503521678000000
 C    -4.718713550000000    -4.194524239000000    0.520223290000000
 H    -4.192701244000000    -5.099074225000000    0.809267961000000
 C    -4.038293293000000    -3.009470249000000    0.307855840000000
 C    -2.614310084000000    -2.707977799000000    0.404301029000000
 C    -3.683331567000000    -0.804828095000000    -0.197341060000000
 N    -2.454767704000000    -1.371209370000000    0.088685955000000
 O    -4.011242628000000    0.321379225000000    -0.527172252000000
 O    -1.822044939000000    -3.575087270000000    0.728362575000000
 C    0.793755108000000    5.002642723000000    -0.136557375000000
 C    1.528717128000000    6.158386067000000    -0.327648215000000
 H    2.575126824000000    6.116613322000000    -0.613502833000000
 C    0.869915183000000    7.377264999000000    -0.139582456000000
 H    1.411452503000000    8.311158787000000    -0.280460729000000
 C    -0.489360570000000    7.411267377000000    0.230354113000000
 H    -0.983294741000000    8.371055053999999    0.372110670000000
 C    -1.208877095000000    6.226859172000000    0.416131795000000
 H    -2.256381372000000    6.237451892000000    0.700858031000000
 C    -0.533402608000000    5.035841265000000    0.222133903000000
 C    -0.998027192000000    3.657674485000000    0.334863109000000
 C    1.186706797000000    3.603014024000000    -0.257343409000000
 N    0.073293112000000    2.836719614000000    0.034326286000000
 O    2.324551817000000    3.308639968000000    -0.578761876000000
 O    -2.148777078000000    3.420426701000000    0.657457235000000




