%nproc=15
%mem=70GB
%chk=N-TrisPhenyl_Nitrile_Triazine.chk
#P B3LYP/6-311++G(d,p) EmpiricalDispersion=GD3 opt SCF=YQC

Comment

0 1
 N    0.000000000000000    0.000000000000000    0.000000000000000
 C    1.486664194000000    0.115830323000000    -0.171934194000000
 C    -0.789065806000000    1.237760323000000    0.199745806000000
 C    -0.613895806000000    -1.236089677000000    -0.038794194000000
 C    -0.462675806000000    2.500160323000000    -0.322134194000000
 C    2.176224194000000    -0.918259677000000    -0.846584194000000
 C    -1.765025806000000    -1.441179677000000    -0.822204194000000
 C    -2.007925806000000    1.140170323000000    0.910585806000000
 C    -1.297715806000000    3.610210323000000    -0.126194194000000
 H    0.438864194000000    2.642570323000000    -0.911754194000000
 C    2.273194194000000    1.157440323000000    0.348705806000000
 C    3.570374194000000    -0.927389677000000    -0.965384194000000
 H    1.632104194000000    -1.749019677000000    -1.289124194000000
 C    -0.125815806000000    -2.315259677000000    0.720105806000000
 C    -2.414125806000000    -2.677449677000000    -0.833324194000000
 H    -2.163745806000000    -0.629609677000000    -1.426834194000000
 C    -2.865415806000000    2.233870323000000    1.065575806000000
 H    -2.315445806000000    0.194440323000000    1.350765806000000
 C    -2.504725806000000    3.472930323000000    0.555025806000000
 H    -1.010125806000000    4.580640323000000    -0.521804194000000
 C    3.666684194000001    1.177220323000000    0.186235806000000
 H    1.821684194000000    1.969990323000000    0.911145806000000
 C    4.315594194000000    0.127230323000000    -0.457594194000000
 H    4.064904194000000    -1.761929677000000    -1.456734194000000
 C    -0.759375806000000    -3.559559677000000    0.685245806000000
 H    0.753504194000000    -2.187099677000000    1.347095806000000
 C    -1.906875806000000    -3.737209677000000    -0.084874194000000
 H    -3.314085806000000    -2.810259677000000    -1.427784194000000
 H    -3.812175806000000    2.108150323000000    1.585245806000000
 H    4.245704194000000    2.009030323000000    0.578395806000000
 H    -0.358405806000000    -4.386819677000000    1.264815806000000
 C    -3.363185302000000    4.663233275000000    0.745251848000000
 N    -4.511214782000000    4.517452355000000    1.429875192000000
 C    -5.237916948000000    5.622120688000000    1.566874206000000
 N    -2.953793500000000    5.833300323000000    0.224272787000000
 C    -3.767407113000000    6.864472801000000    0.428566275000000
 N    -4.926444699000000    6.830898728000000    1.091625453000000
 H    -3.460914557000000    7.822666987000000    0.018175774000000
 H    -6.171106906000000    5.532876811000000    2.116134910000000
 C    5.786563925000000    0.170593764000000    -0.613566729000000
 N    6.447859067000000    1.233385208000000    -0.122551484000000
 C    7.766002137000000    1.213969227000000    -0.293661860000000
 N    6.391016314000000    -0.854957905000000    -1.238833719000000
 C    7.712282375000000    -0.757796715000000    -1.347623978000000
 N    8.465295955000000    0.249490981000000    -0.897640798000000
 H    8.226598251000000    -1.573124779000000    -1.848835988000000
 H    8.325530827000000    2.060954469000000    0.093686734000000
 C    -2.579327192000000    -5.055114433000000    -0.114806733000000
 N    -2.053058970000000    -6.055145944000000    0.613830094000000
 C    -2.701926792000000    -7.213362785000000    0.545557185000000
 N    -3.684288436000000    -5.189091488000000    -0.869252571000000
 C    -4.242072363000000    -6.395609582000000    -0.854733574000000
 N    -3.803961066000000    -7.455077621000000    -0.169365949000000
 H    -5.136759585000000    -6.531988289000000    -1.455923870000000
 H    -2.298145218000000    -8.039087703000000    1.124896540000000




