%nproc=15
%mem=70GB
%chk=Triptycene_CarboxylicAnhydride_Imide.chk
#P B3LYP/6-311++G(d,p) EmpiricalDispersion=GD3 opt SCF=YQC NoSymm

Comment

0 1
 C    0.272195836000000    2.681033257000000    -1.400538316000000
 C    0.311131515000000    3.829187460000000    -0.590956321000000
 C    0.129632804000000    3.784738244000000    0.767097734000000
 C    -0.047149882000000    2.584579278000000    1.420446869000000
 C    2.245076159000000    -1.299742242000000    -1.382727514000000
 C    -0.118856755000000    0.033861080000000    -1.396352891000000
 C    -0.076977300000000    0.040623407000000    1.218318029000000
 C    -1.290021871000000    -0.679699059000000    0.673305610000000
 C    -1.302167458000000    -0.717261699000000    -0.719085251000000
 C    -2.253935823000000    -1.319248827000000    1.425779786000000
 C    -0.006007034000000    1.469569518000000    -0.770563684000000
 C    -0.070922683000000    1.431024922000000    0.636285190000000
 C    1.125873001000000    -0.656391004000000    0.619017246000000
 C    1.137114692000000    -0.678536018000000    -0.793993173000000
 H    -0.055779818000000    0.045740369000000    2.198056076000000
 H    -2.239232395000001    -1.267638972000000    2.354192849000000
 C    3.261618008000000    -1.846694437000000    -0.595423639000000
 C    -2.283054285000000    -1.466527538000000    -1.355444901000000
 C    -3.245654855000000    -2.040431504000000    0.776568015000000
 C    2.138849204000000    -1.196354654000000    1.380397880000000
 C    3.216747284000000    -1.797909246000000    0.767096556000000
 H    -2.295152799000000    -1.528545668000000    -2.283029221000000
 C    -3.244980052000000    -2.122246986000000    -0.598484363000000
 H    2.096362228000000    -1.155535838000000    2.307968124000000
 H    -0.224468669000000    0.049694940000000    -2.481108753000000
 H    2.317228639000000    -1.358346928000000    -2.468756018000000
 H    0.450744007000000    2.728276706000000    -2.474776848000000
 H    -0.162458610000000    2.549458407000000    2.503761286000000
 C    0.154226893000000    5.175841049000000    1.242979808000000
 C    0.454062951000000    5.210982592000000    -1.001039430000000
 N    0.354192694000000    5.985519029000000    0.140051104000000
 O    0.637441506000000    5.494104263000000    -2.171881704000000
 O    0.000112647000000    5.423554313000000    2.425969968000000
 C    0.447040415000000    7.413762283000000    0.174817803000000
 C    0.341196287000000    8.188321500000001    -0.993006255000000
 H    0.174025488000000    7.739235902000000    -1.967239044000000
 C    0.434425953000000    9.586197380000000    -0.961180872000000
 H    0.345545017000000    10.152846949000001    -1.884963944000000
 C    0.638161773000000    10.246698706000000    0.243065413000000
 H    0.711983892000000    11.330360870000000    0.269072759000000
 C    0.746638602000000    9.507944839000000    1.413713714000000
 H    0.908245927000000    10.012557933000000    2.363242206000000
 C    0.650924604000000    8.110322515000000    1.378244583000000
 H    0.753228592000000    7.596717793000000    2.329290990000000
 C    -4.424339916000000    -2.766957384000000    1.251732898000000
 C    -4.408555535000000    -2.889374181000000    -1.009135057000000
 N    -5.086843354000000    -3.253062169000000    0.139614285000000
 O    -4.629739883000000    -3.088153021000000    -2.190753296000000
 O    -4.649873525000000    -2.856412263000000    2.445764387000000
 C    -6.297182181000000    -4.017068011000000    0.172526457000000
 C    -6.746983238000000    -4.734767146000000    -0.948876661000000
 H    -6.192206293000000    -4.749667615000000    -1.882018662000000
 C    -7.932744774000000    -5.480993423000001    -0.919253631000000
 H    -8.248377701000001    -6.025625874000000    -1.805886626000000
 C    -8.701883287999999    -5.527073189000000    0.235857621000000
 H    -9.622141723000000    -6.104133134000000    0.259857701000000
 C    -8.282792721000000    -4.827990027000000    1.359951822000000
 H    -8.876745761000000    -4.854008353000000    2.270390448000000
 C    -7.095434469000000    -4.084434609000000    1.327193492000000
 H    -6.833091517000000    -3.556338767000000    2.238805329000000
 C    4.433860317000000    -2.477669117000000    1.249990310000000
 C    4.462125681000000    -2.535228948000000    -1.013336195000000
 N    5.137645901000000    -2.899305070000000    0.136920027000000
 O    4.703347250000000    -2.705065556000001    -2.195548057000000
 O    4.656702711000000    -2.567221437000000    2.444519686000000
 C    6.380004045000000    -3.610027629000000    0.170504289000000
 C    7.188423013000000    -3.736456973000000    -0.972050910000000
 H    6.911951122000000    -3.292736890000000    -1.923591376000000
 C    8.403469070000000    -4.433952368000000    -0.941639444000000
 H    9.003769698999999    -4.509227389000000    -1.845154549000000
 C    8.841259939000000    -5.025899989000000    0.235610134000000
 H    9.782442045000000    -5.568131248000000    0.260334134000000
 C    8.063743857000000    -4.917757231000000    1.380911767000000
 H    8.393962926000000    -5.378288352000000    2.308932301000000
 C    6.850208328000000    -4.217785579000000    1.347168702000000
 H    6.290259554000000    -4.180435202000000    2.276581153000000




