%nproc=15
%mem=70GB
%chk=Triptycene_CarboxylicAnhydride_Imide_freq.chk
#P B3LYP/6-311++G(d,p) EmpiricalDispersion=GD3 freq(noraman) SCF=YQC NoSymm

Restart from Triptycene_CarboxylicAnhydride_Imide.log

0 1
 C   0.132664   2.546038  -1.319945
 C   0.132706   3.726393  -0.586252
 C   0.129651   3.728374   0.802210
 C   0.121667   2.550118   1.539243
 C   2.366838  -1.352993  -1.304598
 C   0.124004  -0.048019  -1.183213
 C   0.112667  -0.044340   1.409844
 C  -1.106359  -0.745068   0.813475
 C  -1.100231  -0.746955  -0.595580
 C  -2.139150  -1.333497   1.534836
 C   0.126187   1.360681  -0.593184
 C   0.120024   1.362690   0.815836
 C   1.331998  -0.753345   0.824156
 C   1.338121  -0.755436  -0.584883
 H   0.107917  -0.042753   2.498797
 H  -2.157447  -1.338891   2.618325
 C   3.383109  -1.944735  -0.563941
 C  -2.126045  -1.338463  -1.324324
 C  -3.159516  -1.920255   0.795802
 C   2.353759  -1.349858   1.554556
 C   3.375655  -1.945070   0.824513
 H  -2.133997  -1.348400  -2.407907
 C  -3.152042  -1.924560  -0.592626
 H   2.361692  -1.356721   2.638163
 H   0.128732  -0.049511  -2.272189
 H   2.385079  -1.361491  -2.388072
 H   0.136520   2.559690  -2.403512
 H   0.118038   2.566845   2.622767
 C   0.132178   5.140822   1.275164
 C   0.140333   5.137449  -1.063227
 N   0.139074   5.938211   0.104824
 O   0.145707   5.540343  -2.200169
 O   0.129641   5.546967   2.410956
 C   0.144316   7.365483   0.102726
 C  -0.700341   8.060187  -0.764799
 H  -1.347642   7.515610  -1.438393
 C  -0.685966   9.452158  -0.767221
 H  -1.337584   9.990285  -1.445827
 C   0.154627   10.150152   0.098405
 H   0.158648   11.234007   0.096717
 C   0.990050   9.448642   0.966192
 H   1.645656   9.984035   1.643118
 C   0.994124   8.056601   0.968088
 H   1.637417   7.509351   1.643348
 C  -4.385896  -2.622589   1.266333
 C  -4.374901  -2.626988  -1.072028
 N  -5.073496  -3.022475   0.094632
 O  -4.720416  -2.830369  -2.209684
 O  -4.742018  -2.821925   2.401425
 C  -6.311499  -3.732780   0.090116
 C  -6.485750  -4.815967  -0.773034
 H  -5.687104  -5.106704  -1.441547
 C  -7.697765  -5.500658  -0.777806
 H  -7.834080  -6.337401  -1.453062
 C  -8.726851  -5.118557   0.081304
 H  -9.666974  -5.657932   0.077877
 C  -8.542052  -4.040028   0.944853
 H  -9.336900  -3.737545   1.616725
 C  -7.339248  -3.339279   0.948931
 H  -7.190834  -2.505202   1.620920
 C   4.593949  -2.654090   1.305863
 C   4.604762  -2.656541  -1.032504
 N   5.289820  -3.057539   0.140288
 O   4.959554  -2.861343  -2.167045
 O   4.938151  -2.856586   2.444066
 C   6.523121  -3.775961   0.146788
 C   7.553336  -3.391766  -0.713285
 H   7.410331  -2.558723  -1.387723
 C   8.751509  -4.100392  -0.707249
 H   9.548251  -3.805127  -1.380088
 C   8.929314  -5.177556   0.159465
 H   9.865871  -5.723086   0.164400
 C   7.897833  -5.550345   1.019795
 H   8.028720  -6.385970   1.697506
 C   6.690345  -4.857719   1.013116
 H   5.889882  -5.141230   1.682560






