%nproc=15
%mem=70GB
%chk=Pyrene_tBu_CarboxylicAnhydride_Imide_freq.chk
#P B3LYP/6-311++G(d,p) EmpiricalDispersion=GD3 freq(noraman) SCF=YQC NoSymm

Restart from Pyrene_tBu_CarboxylicAnhydride_Imide.log

0 1
 C  -2.424069  -0.694972  -0.004271
 C  -1.217465  -1.459315  -0.029382
 C   0.004252  -0.715006  -0.015697
 C  -0.004252   0.715006   0.015689
 C  -1.231231   1.446161   0.038157
 C  -2.430291   0.669986   0.022424
 C   1.217465   1.459315   0.029374
 C   1.184178   2.857975   0.062605
 C  -0.020639   3.570684   0.083999
 C  -1.215967   2.849633   0.071069
 C   1.231231  -1.446161  -0.038165
 C   2.430291  -0.669986  -0.022432
 C   2.424069   0.694972   0.004262
 C   1.215967  -2.849633  -0.071077
 C   0.020639  -3.570684  -0.084007
 C  -1.184178  -2.857975  -0.062613
 H  -2.169198   3.355298   0.087736
 H   2.130175   3.380688   0.072994
 H  -2.130175  -3.380687  -0.073002
 H   2.169198  -3.355297  -0.087744
 C   0.015699   5.106189   0.121702
 C  -0.015699  -5.106188  -0.121710
 C   1.393595  -5.723480  -0.138495
 C  -0.761290  -5.626055   1.129087
 C  -0.764312  -5.563647  -1.394893
 C   0.761288   5.626055  -1.129096
 C  -1.393595   5.723480   0.138489
 C   0.764313   5.563648   1.394883
 H   1.313307  -6.813196  -0.164713
 H   1.964292  -5.412973  -1.017711
 H   1.966372  -5.455602   0.753372
 H  -0.794468  -6.719456   1.118133
 H  -0.252640  -5.309497   2.043882
 H  -1.790127  -5.261784   1.171017
 H  -0.797958  -6.656261  -1.437668
 H  -1.792989  -5.197201  -1.416752
 H  -0.257462  -5.202709  -2.294066
 H   0.794466   6.719456  -1.118143
 H   1.790125   5.261783  -1.171028
 H   0.252636   5.309497  -2.043890
 H   0.797959   6.656263   1.437659
 H   0.257465   5.202710   2.294057
 H   1.792991   5.197203   1.416741
 H  -1.313307   6.813196   0.164707
 H  -1.966373   5.455603  -0.753378
 H  -1.964291   5.412972   1.017705
 C  -3.836224  -1.180719  -0.008663
 C  -3.848370   1.140890   0.038175
 N  -4.645780  -0.024299   0.017888
 O  -4.268387   2.273817   0.062138
 O  -4.243933  -2.318518  -0.028872
 C  -6.071683  -0.031787   0.024170
 C  -6.773334   0.832006  -0.818535
 H  -6.232992   1.509352  -1.465614
 C  -8.165338   0.825869  -0.802607
 H  -8.708615   1.502195  -1.452420
 C  -8.857050  -0.046218   0.036604
 H  -9.940924  -0.051813   0.041469
 C  -8.148872  -0.911035   0.869587
 H  -8.679301  -1.592865   1.524248
 C  -6.756787  -0.902742   0.873096
 H  -6.203678  -1.574359   1.515346
 C   3.836224   1.180719   0.008654
 C   3.848370  -1.140890  -0.038182
 N   4.645780   0.024299  -0.017890
 O   4.268387  -2.273817  -0.062139
 O   4.243933   2.318518   0.028870
 C   6.071683   0.031786  -0.024162
 C   6.773328  -0.832005   0.818549
 H   6.232981  -1.509351   1.465625
 C   8.165332  -0.825869   0.802631
 H   8.708604  -1.502196   1.452448
 C   8.857050   0.046216  -0.036576
 H   9.940924   0.051811  -0.041434
 C   8.148878   0.911033  -0.869566
 H   8.679313   1.592862  -1.524223
 C   6.756793   0.902740  -0.873084
 H   6.203689   1.574357  -1.515338






