%nproc=15
%mem=70GB
%chk=2_Phenyl_PrimaryAmine_Imine.chk
#P B3LYP/6-311++G(d,p) EmpiricalDispersion=GD3 opt SCF=YQC NoSymm

Comment

0 1
 C    -0.000013000000000    -1.415145000000000    0.000000000000000
 C    0.000013000000000    1.415145000000000    0.000000000000000
 C    -1.206999000000000    -0.694755000000000    0.000000000000000
 C    1.206999000000000    0.694755000000000    0.000000000000000
 C    -1.206984000000000    0.694770000000000    0.000000000000000
 C    1.206984000000000    -0.694770000000000    0.000000000000000
 H    2.148535000000000    -1.233078000000000    0.000000000000000
 H    -2.148535000000000    1.233078000000000    0.000000000000000
 H    2.148565000000000    1.233036000000000    0.000000000000000
 H    -2.148565000000000    -1.233036000000000    0.000000000000000
 N    0.044721560000000    -2.814028910000000    -0.054107821000000
 C    -0.686459698000000    -3.512774323000000    0.725355930000000
 C    -0.736731348000000    -4.977911123000000    0.671430128000000
 C    -1.546583701000000    -5.668828635000000    1.583014036000000
 C    -1.617321976000000    -7.059543196000000    1.555015828000000
 C    -0.877405275000000    -7.772809841000001    0.613948419000000
 C    -0.066257447000000    -7.091473823000000    -0.298939494000000
 C    0.005143863000000    -5.705319006000000    -0.273313350000000
 H    -1.311844265000000    -3.042938959000000    1.497481739000000
 H    -2.122120645000000    -5.112302467000000    2.316067855000000
 H    -2.246834408000000    -7.584412281000000    2.264400793000000
 H    -0.930207369000000    -8.855478360999999    0.589545650000000
 H    0.508886275000000    -7.647790801000000    -1.030529967000000
 H    0.628644548000000    -5.163734674000000    -0.974058821000000
 N    -0.044721560000000    2.814028910000000    0.054107821000000
 C    0.686459698000000    3.512774323000000    -0.725355930000000
 C    0.736731348000000    4.977911123000000    -0.671430128000000
 C    1.546583701000000    5.668828635000000    -1.583014036000000
 C    1.617321976000000    7.059543196000000    -1.555015828000000
 C    0.877405275000000    7.772809841000001    -0.613948419000000
 C    0.066257447000000    7.091473823000000    0.298939494000000
 C    -0.005143863000000    5.705319006000000    0.273313350000000
 H    1.311844265000000    3.042938959000000    -1.497481739000000
 H    2.122120645000000    5.112302467000000    -2.316067855000000
 H    2.246834408000000    7.584412281000000    -2.264400793000000
 H    0.930207369000000    8.855478360999999    -0.589545650000000
 H    -0.508886275000000    7.647790801000000    1.030529967000000
 H    -0.628644548000000    5.163734674000000    0.974058821000000




