%nproc=15
%mem=70GB
%chk=TrisPhenyl_Aldehyde_Imine_freq.chk
#P B3LYP/6-311++G(d,p) EmpiricalDispersion=GD3 freq(noraman) SCF=YQC

Restart from TrisPhenyl_Aldehyde_Imine.log

0 1
 C   4.473440  -3.558673   0.282459
 C   4.480863  -2.399255   1.068409
 C   3.394319  -1.532105   1.069881
 C   2.264410  -1.798209   0.284793
 C   2.261740  -2.963804  -0.502668
 C   3.344161  -3.828525  -0.506806
 C   1.102707  -0.876066   0.283584
 C  -0.204569  -1.376061   0.281628
 C  -1.310443  -0.518336   0.282236
 C  -1.089760   0.863679   0.283206
 C   0.205955   1.392521   0.284704
 C   1.292530   0.510477   0.284499
 C   0.423969   2.859416   0.286030
 C   1.437086   3.438963  -0.499093
 C   1.646231   4.808469  -0.502395
 C   0.846968   5.652311   0.285084
 C  -0.163187   5.079962   1.068756
 C  -0.372179   3.705613   1.069745
 C  -2.690026  -1.062938   0.283208
 C  -3.699388  -0.473142  -0.499166
 C  -4.989962  -0.976856  -0.502744
 C  -5.320102  -2.093504   0.281533
 C  -4.318329  -2.684903   1.061688
 C  -3.023618  -2.178660   1.062860
 H  -0.363743  -2.447696   0.279088
 H   2.300053   0.908866   0.284032
 H  -1.938117   1.537495   0.281853
 H   2.047478   2.804791  -1.131944
 H  -1.143101   3.281755   1.702851
 H   2.421009   5.249926  -1.117225
 H  -0.784078   5.716855   1.691077
 H   3.340969  -4.718753  -1.123804
 H   1.408432  -3.174731  -1.137151
 H   5.342271  -2.180097   1.691568
 H   3.411435  -0.653405   1.704165
 H  -2.270512  -2.636644   1.693540
 H  -4.558597  -3.543512   1.680939
 H  -5.760240  -0.525107  -1.115761
 H  -3.456156   0.374301  -1.129926
 C   9.096686  -8.002385  -0.363506
 C   7.813260  -8.548667  -0.302419
 C   9.251851  -6.618831  -0.438010
 C   8.137800  -5.783144  -0.432284
 C   6.845673  -6.327548  -0.353512
 C   6.695712  -7.721538  -0.315026
 C   5.634325  -4.453890   0.302603
 N   5.682068  -5.540266  -0.366200
 H   7.683553  -9.624236  -0.256228
 H   10.244077  -6.187171  -0.510840
 H   8.262457  -4.710081  -0.523551
 H   5.694140  -8.133958  -0.283342
 H   6.466248  -4.139112   0.948501
 H   9.965912  -8.649810  -0.369353
 C   2.385106   11.877012  -0.367750
 C   3.500030   11.038527  -0.310958
 C   1.108867   11.319849  -0.435767
 C   0.941975   9.937241  -0.428100
 C   2.059689   9.090272  -0.353759
 C   3.342205   9.657147  -0.321454
 C   1.043065   7.105101   0.305302
 N   1.959046   7.688953  -0.365452
 H   4.496620   11.463867  -0.269684
 H   0.238731   11.963427  -0.505156
 H  -0.050094   9.508742  -0.514531
 H   4.200180   8.995852  -0.293198
 H   0.355515   7.668731   0.951824
 H   2.511406   12.953466  -0.375351
 C  -11.480221  -3.874416  -0.365680
 C  -11.312518  -2.489996  -0.297900
 C  -10.359134  -4.699431  -0.444945
 C  -9.078728  -4.151631  -0.437658
 C  -8.905043  -2.760707  -0.352402
 C  -10.037799  -1.934793  -0.308859
 C  -6.675986  -2.650890   0.301224
 N  -7.641575  -2.146229  -0.364190
 H  -12.179544  -1.840728  -0.247743
 H  -10.480761  -5.774276  -0.522788
 H  -8.211365  -4.795012  -0.532719
 H  -9.894898  -0.861254  -0.272254
 H  -6.818596  -3.531519   0.943509
 H  -12.475238  -4.304120  -0.372918






