%nproc=15
%mem=70GB
%chk=BiPhenyl_AmineBorane_Borazine.chk
#P B3LYP/6-311++G(d,p) EmpiricalDispersion=GD3 opt SCF=YQC NoSymm

Comment

0 1
 C    -0.000000000000000    3.577958000000000    -0.000000182000000
 C    1.133739000000000    2.852350000000000    -0.402520182000000
 C    1.135339000000000    1.463226000000000    -0.401762182000000
 C    -0.000000000000000    0.741600000000000    -0.000000182000000
 C    -1.135339000000000    1.463225000000000    0.401761818000000
 C    -1.133738000000000    2.852349000000000    0.402519818000000
 C    -0.000000000000000    -0.741600000000000    -0.000000182000000
 C    -1.135339000000000    -1.463226000000000    -0.401762182000000
 C    -1.133739000000000    -2.852350000000000    -0.402520182000000
 C    -0.000000000000000    -3.577958000000000    -0.000000182000000
 C    1.133738000000000    -2.852349000000000    0.402519818000000
 C    1.135339000000000    -1.463225000000000    0.401761818000000
 H    -2.020512000000000    -3.385811000000000    -0.727052182000000
 H    -2.020512000000000    3.385812000000000    0.727052818000000
 H    2.020512000000000    -3.385812000000000    0.727052818000000
 H    2.020512000000000    3.385811000000000    -0.727052182000000
 H    -2.015826000000000    -0.929067000000000    -0.740072182000000
 H    -2.015827000000000    0.929068000000000    0.740072818000000
 H    2.015826000000000    0.929067000000000    -0.740072182000000
 H    2.015827000000000    -0.929068000000000    0.740072818000000
 N    0.000364377000000    5.035889230000000    0.017642720000000
 B    -1.295641836000000    5.853178672000000    -0.107162763000000
 B    1.296824258000000    5.849292944000000    0.161668814000000
 H    -2.350237702000000    5.347545429000000    -0.208576145000000
 N    -1.311677502000000    7.378923008000000    -0.092942942000000
 H    2.351070289000000    5.340815239000000    0.251854071000000
 N    1.313881580000000    7.374968532000000    0.181666666000000
 B    0.001387696000000    8.125488202000000    0.052375848000000
 H    -2.211889870000000    7.901909260000000    -0.177781624000000
 H    2.214471206000000    7.895317412000000    0.277898429000000
 H    0.001837094000000    9.306740262000000    0.065147672000000
 N    -0.000364372000000    -5.035891229000000    0.017642976000000
 B    1.295641807000000    -5.853180677000000    -0.107162817000000
 B    -1.296824215000000    -5.849294936000000    0.161669464000000
 H    2.350237645000000    -5.347547439000000    -0.208576511000000
 N    1.311677476000000    -7.378925013000000    -0.092942922000000
 H    -2.351070221000000    -5.340817226000000    0.251854981000000
 N    -1.313881530000000    -7.374970523000000    0.181667397000000
 B    -0.001387682000000    -8.125490200000000    0.052376261000000
 H    2.211889822000000    -7.901911269000000    -0.177781823000000
 H    -2.214471130000000    -7.895319398000000    0.277899431000000
 H    -0.001837076000000    -9.306742259000000    0.065148145000000




