%nproc=15
%mem=70GB
%chk=ETTA_Ketoenamine_Ketoenamine.chk
#P B3LYP/6-311++G(d,p) EmpiricalDispersion=GD3 opt SCF=YQC NoSymm

Comment

0 1
 C    -0.673043696000000    -0.061281087000000    0.099838696000000
 C    0.676216304000000    0.084438913000000    -0.077921304000000
 C    -1.445563696000000    0.859668913000000    0.987758696000000
 C    -1.208593696000000    0.910808913000000    2.368608696000000
 H    -0.435593696000000    0.291168913000000    2.815748696000000
 C    -1.956453696000000    1.762468913000000    3.184708696000000
 H    -1.756043696000000    1.803278913000000    4.251888696000000
 C    -2.958213696000000    2.558248913000000    2.631708696000000
 C    -3.215433696000000    2.502618913000000    1.263248696000000
 H    -4.001643696000000    3.116068913000000    0.831638696000000
 C    -2.465153696000000    1.655188913000000    0.445338696000000
 H    -2.681203696000000    1.618718913000000    -0.619611304000000
 C    1.423956304000000    1.217358913000000    0.545288696000000
 C    1.186576304000000    2.544388913000000    0.160958696000000
 H    0.432056304000000    2.771628913000000    -0.587751304000000
 C    1.910456304000000    3.588888913000000    0.739918696000000
 H    1.711366304000000    4.615018913000000    0.443058696000000
 C    2.886286304000000    3.315958913000000    1.697168696000000
 C    3.142086304000000    1.999178913000000    2.075248696000000
 H    3.907026304000000    1.784298913000000    2.816488696000000
 C    2.417466304000000    0.953908913000000    1.499138696000000
 H    2.631376304000000    -0.068851087000000    1.799648696000000
 C    -1.412513696000000    -1.154241087000000    -0.600071304000000
 C    -1.922953696000000    -2.232601087000000    0.134698696000000
 H    -1.770443696000000    -2.283151087000000    1.209878696000000
 C    -2.626883696000000    -3.253351087000000    -0.507091304000000
 H    -3.013833696000000    -4.089711087000000    0.068518696000000
 C    -2.834543696000000    -3.198741087000000    -1.884751304000000
 C    -2.343603696000000    -2.122491087000001    -2.622201304000000
 H    -2.507323696000000    -2.077791087000000    -3.695421304000000
 C    -1.638713696000000    -1.101381087000000    -1.982691304000000
 H    -1.261323696000000    -0.266561087000000    -2.567421304000000
 C    1.439886304000000    -0.894691087000000    -0.907871304000000
 C    1.681336304000000    -2.196721087000000    -0.447761304000000
 H    1.299246304000000    -2.515401087000000    0.518518696000000
 C    2.406656304000000    -3.098111087000000    -1.228831304000000
 H    2.581246304000000    -4.108341087000000    -0.868861304000000
 C    2.903116304000000    -2.703191087000000    -2.470121304000000
 C    2.679966304000000    -1.406181087000000    -2.930431304000000
 H    3.069876304000000    -1.097111087000000    -3.896341304000000
 C    1.955636304000000    -0.502771087000000    -2.150401304000000
 H    1.790596304000000    0.507088913000000    -2.517471304000000
 C    -3.833915825000000    3.366976563000000    3.540219115000000
 O    -3.613050004000000    3.383451148000000    4.749433729000000
 C    -4.957773277000000    4.155415748000000    2.958342608000000
 C    -5.812470765000000    4.865850323000000    3.708410173000000
 H    -5.094285570000000    4.174119450000000    1.887963123000000
 N    -5.830189151000000    5.015334803000000    5.068908949000000
 H    -6.596154797000000    5.408364118000000    3.189514193000000
 C    -6.709598587000000    5.756829339000000    5.875068847000001
 H    -5.071861630000001    4.525025473000000    5.552017728000000
 C    -7.820226904999999    6.451314158000000    5.377356130000000
 C    -6.467616392000000    5.822073527999999    7.256098016000000
 C    -8.659731775999999    7.182696513999999    6.225435364000000
 H    -8.062791214000001    6.436712849000000    4.320627555000000
 C    -8.400936903000000    7.233581063000000    7.591184404000000
 H    -9.515457307000000    7.710924013000000    5.813377329000000
 C    -7.303379843000000    6.552458585000000    8.107997865000000
 H    -5.614545856000001    5.300373427000000    7.683762034000000
 H    -9.052403693000000    7.801837686000000    8.249340541000000
 H    -7.093541673000000    6.587759322000000    9.173582176000000
 C    3.858948547000000    4.299677435000000    2.273807095000000
 O    4.657216130000000    3.938588069000000    3.136150669000000
 C    3.853125525000000    5.706420970000000    1.779528923000000
 C    4.659209440000000    6.655343355000000    2.277124601000000
 H    3.185045725000000    5.984642694000000    0.978929316000000
 N    5.597420352000000    6.542356283000000    3.267382486000000
 H    4.580716414000000    7.648984620000000    1.847880148000000
 C    6.455765603000000    7.517998034000000    3.800707419000000
 H    5.688175680000000    5.596574486000000    3.649636622000000
 C    6.432650626000000    8.865575982999999    3.417273273000000
 C    7.400492572000000    7.132573640000000    4.764550116000000
 C    7.317756277000000    9.795134301999999    3.975338040000000
 H    5.723802084000000    9.226415566000000    2.680350982000000
 C    8.246013993000000    9.390969890999999    4.929184573000000
 H    7.277322039000000    10.834730762000000    3.661193852000000
 C    8.288003021000000    8.057807576000000    5.324874661000000
 H    7.454802629000000    6.095747232000000    5.088337493000000
 H    8.933417609999999    10.112577285000000    5.361912092000000
 H    9.010672073000000    7.733553256000000    6.068754155000000
 C    -3.764107400000000    -4.255586646000000    -2.399799454000000
 O    -4.111688062000000    -5.177346694000000    -1.664408944000000
 C    -4.267538604000000    -4.164591684000000    -3.800352606000000
 C    -5.063772193000000    -5.093673720000000    -4.348663716000000
 H    -3.997403234000000    -3.313851104000000    -4.406953813000000
 N    -5.555863627000000    -6.236989232000000    -3.779197185000000
 H    -5.378718038000000    -4.934926031000000    -5.374988813000000
 C    -6.394086596000000    -7.220409568000000    -4.329956281000001
 H    -5.279548501000000    -6.368110871000000    -2.801795001000000
 C    -6.830041063000000    -7.211818631000000    -5.661644034000000
 C    -6.834748458000000    -8.269752564999999    -3.508524512000000
 C    -7.673057109000000    -8.213387837000001    -6.156729923000000
 H    -6.521456445000000    -6.430514370000000    -6.347256977000000
 C    -8.097551073000000    -9.244075720000000    -5.324671134000000
 H    -7.995001313000000    -8.183609297000000    -7.194297976000000
 C    -7.678138368000000    -9.272938614999999    -3.998430055000000
 H    -6.522848268000000    -8.312971837999999    -2.467540740000000
 H    -8.752419522000000    -10.021211311000000    -5.708990868000001
 H    -8.005846164999999    -10.074031744999999    -3.341463146000000
 C    3.800796510000001    -3.646198841000000    -3.212544659000000
 O    4.004226648000000    -4.774938489000000    -2.770033539000000
 C    4.425905846000000    -3.203264428000000    -4.491731750000000
 C    5.275782091999999    -3.970373530000000    -5.189643223000000
 H    4.183945903000000    -2.230458620000000    -4.891484076000000
 N    5.713265106000000    -5.235233384000000    -4.902668256000000
 H    5.675339716000000    -3.558081687000000    -6.110568877000000
 C    6.596677223000000    -6.059333236000000    -5.619265317000000
 H    5.311517340000000    -5.631333355000000    -4.047939347000000
 C    7.261792052000000    -5.656015482000000    -6.784803574000000
 C    6.826656700000000    -7.364998569000000    -5.158395237000000
 C    8.125685956000000    -6.521957619000000    -7.465067130000000
 H    7.129018863000000    -4.658721092000000    -7.189156270000000
 C    8.338866967000000    -7.811910754000000    -6.990294310000000
 H    8.630233482000000    -6.183050357000000    -8.365986638000001
 C    7.688695942999999    -8.234746473000000    -5.835243195000000
 H    6.328142116000000    -7.719827119000000    -4.259297491000000
 H    9.009097449000000    -8.484205686999999    -7.518787161000000
 H    7.848943662000000    -9.241141033000000    -5.458097625000000




