%nproc=15
%mem=70GB
%chk=ETTA_Ketoenamine_Ketoenamine_freq.chk
#P B3LYP/6-311++G(d,p) EmpiricalDispersion=GD3 freq(noraman) SCF=YQC NoSymm

Restart from ETTA_Ketoenamine_Ketoenamine_pbe_b3lyp.log

0 1
 C  -0.696289  -0.054195   0.021226
 C   0.647401   0.089330  -0.156977
 C  -1.471332   0.797639   0.964141
 C  -1.034251   1.015927   2.279975
 H  -0.107917   0.563205   2.611869
 C  -1.769836   1.801796   3.153278
 H  -1.436803   1.958329   4.171610
 C  -2.962855   2.412553   2.740997
 C  -3.412528   2.179373   1.433969
 H  -4.346038   2.605332   1.088410
 C  -2.686619   1.372440   0.566458
 H  -3.060701   1.186440  -0.433754
 C   1.403631   1.253055   0.380755
 C   0.950234   2.565932   0.192197
 H   0.031162   2.735765  -0.355055
 C   1.659327   3.646085   0.701222
 H   1.285671   4.646301   0.520748
 C   2.852244   3.449860   1.410087
 C   3.325148   2.139862   1.570194
 H   4.256886   1.990341   2.101428
 C   2.616652   1.061758   1.061088
 H   2.996512   0.055352   1.195737
 C  -1.494625  -1.074073  -0.711975
 C  -2.421948  -1.877820  -0.030046
 H  -2.549965  -1.750582   1.038924
 C  -3.164347  -2.836136  -0.703970
 H  -3.874675  -3.460099  -0.175914
 C  -3.012300  -3.021178  -2.085123
 C  -2.112700  -2.196619  -2.773995
 H  -2.000925  -2.282481  -3.847690
 C  -1.370879  -1.236268  -2.098762
 H  -0.681879  -0.605593  -2.646943
 C   1.465448  -0.904638  -0.904368
 C   1.358312  -2.280885  -0.649821
 H   0.659265  -2.627444   0.101432
 C   2.127144  -3.196546  -1.351262
 H   2.035103  -4.258242  -1.159315
 C   3.042204  -2.771388  -2.324857
 C   3.162894  -1.396785  -2.570463
 H   3.844770  -1.031118  -3.328001
 C   2.392849  -0.479500  -1.866025
 H   2.501260   0.579966  -2.068069
 C  -3.704663   3.256388   3.733282
 O  -3.388768   3.188345   4.936654
 C  -4.752270   4.144487   3.275935
 C  -5.479839   4.929538   4.131645
 H  -4.969808   4.234098   2.222525
 N  -5.313683   4.965469   5.470352
 H  -6.239950   5.586669   3.725141
 C  -6.037818   5.719940   6.404339
 H  -4.551997   4.365693   5.797859
 C  -7.228568   6.388812   6.089861
 C  -5.542228   5.789194   7.714812
 C  -7.892078   7.124581   7.068073
 H  -7.653176   6.327464   5.095957
 C  -7.395649   7.197679   8.368374
 H  -8.812609   7.635933   6.809755
 C  -6.218186   6.519793   8.684654
 H  -4.622136   5.270994   7.963101
 H  -7.920820   7.768582   9.124604
 H  -5.819438   6.561836   9.691869
 C   3.664958   4.571707   1.981500
 O   4.852846   4.358399   2.291432
 C   3.047659   5.864897   2.183596
 C   3.732726   6.938610   2.689051
 H   1.997645   6.003807   1.974933
 N   5.035121   6.921000   3.042178
 H   3.207977   7.875166   2.838517
 C   5.803487   7.984581   3.536409
 H   5.469449   6.000704   2.935389
 C   5.374105   9.318265   3.503830
 C   7.064685   7.686975   4.073551
 C   6.188455   10.323768   4.017882
 H   4.419814   9.582802   3.066507
 C   7.438999   10.026355   4.556656
 H   5.842533   11.350839   3.985478
 C   7.872222   8.700482   4.575533
 H   7.401495   6.656133   4.099395
 H   8.068188   10.815416   4.950524
 H   8.843391   8.450824   4.987558
 C  -3.843357  -4.072311  -2.755874
 O  -4.853052  -4.507379  -2.169613
 C  -3.440282  -4.574673  -4.051658
 C  -4.157509  -5.524684  -4.730294
 H  -2.519619  -4.235775  -4.502223
 N  -5.302548  -6.084265  -4.286153
 H  -3.790496  -5.877899  -5.687032
 C  -6.100779  -7.035052  -4.937621
 H  -5.575285  -5.759760  -3.354881
 C  -5.941171  -7.371328  -6.288795
 C  -7.111558  -7.661677  -4.193670
 C  -6.767925  -8.329379  -6.869362
 H  -5.190967  -6.882109  -6.896854
 C  -7.768242  -8.955541  -6.127824
 H  -6.632249  -8.578768  -7.915784
 C  -7.936261  -8.610020  -4.786781
 H  -7.239544  -7.403287  -3.147913
 H  -8.410029  -9.696762  -6.588628
 H  -8.711320  -9.084116  -4.195347
 C   3.829422  -3.813754  -3.059449
 O   3.449976  -4.999642  -3.009944
 C   5.017417  -3.428313  -3.790827
 C   5.771647  -4.326942  -4.498980
 H   5.365750  -2.406968  -3.763711
 N   5.500448  -5.644959  -4.601248
 H   6.662654  -3.979987  -5.009516
 C   6.208242  -6.611121  -5.330388
 H   4.683276  -5.931812  -4.056206
 C   7.181215  -6.287001  -6.285577
 C   5.908499  -7.960647  -5.092577
 C   7.849107  -7.299538  -6.969091
 H   7.410550  -5.254068  -6.514519
 C   7.554822  -8.640344  -6.727800
 H   8.599273  -7.033171  -7.705215
 C   6.575546  -8.962137  -5.787858
 H   5.155056  -8.215751  -4.355029
 H   8.076161  -9.421879  -7.267277
 H   6.331072  -9.999542  -5.589670






