%nproc=15
%mem=70GB
%chk=TriPhenanthrene_Catechol_BoronateEster_freq_opt_freq.chk
#P B3LYP/6-311++G(d,p) EmpiricalDispersion=GD3 freq(noraman) SCF=YQC

Restart from TriPhenanthrene_Catechol_BoronateEster_freq_opt.log

0 1
 C  -0.623727  -6.081815   0.259393
 C   5.639163   2.476761  -0.229039
 C  -4.979733   3.638528   0.043804
 C  -5.643859   2.466200   0.229129
 C   4.972837   3.647855  -0.043813
 C   0.635114  -6.080625  -0.259567
 C  -1.357966  -4.896989   0.515228
 C   4.984438   1.238099  -0.435115
 C  -3.566805   3.737204   0.047206
 C  -4.986808   1.228764   0.435161
 C   3.559727   3.743891  -0.047337
 C   1.367110  -4.894413  -0.515413
 C  -2.683212  -4.875974   0.994469
 C   5.662352   0.006258  -0.526655
 C  -2.871554   4.932854  -0.224573
 C  -5.662408  -0.004339   0.526808
 C   2.862222   4.938240   0.224388
 C   2.692304  -4.870907  -0.994686
 C  -3.366563  -3.685472   1.118583
 C   4.961579  -1.173721  -0.641017
 C  -1.494792   4.952553  -0.254199
 C  -4.959421  -1.183006   0.641113
 C   1.485425   4.955362   0.253943
 C   3.373414  -3.679121  -1.118791
 C  -2.775035  -2.457582   0.730743
 C   3.546554  -1.179889  -0.708821
 C  -0.745266   3.783347   0.021011
 C  -3.544377  -1.186542   0.708719
 C   0.738105   3.784746  -0.021273
 C   2.779591  -2.452358  -0.730897
 C  -1.451897  -2.488556   0.297760
 C   2.891731   0.048771  -0.675551
 C  -1.441479   2.615892   0.320809
 C  -2.891854   0.043339   0.675328
 C   1.436520   2.618600  -0.321042
 C   1.456520  -2.485814  -0.297894
 C  -0.695290  -3.669350   0.215892
 C   3.558030   1.274359  -0.500313
 C  -2.845285   2.532771   0.310692
 C  -3.560462   1.267682   0.500194
 C   2.840479   2.538110  -0.310868
 C   0.702130  -3.668029  -0.216050
 H  -3.441450   5.829200  -0.437646
 H  -0.984806   5.871498  -0.516155
 H  -0.870173   1.735480   0.576908
 H  -6.744013  -0.011325   0.466128
 H  -5.504864  -2.118096   0.643984
 H  -1.816218   0.054275   0.768312
 H  -3.159209  -5.813716   1.254793
 H  -4.377216  -3.701054   1.506853
 H  -1.000463  -1.572261  -0.052974
 H   1.003389  -1.570368   0.052878
 H   4.384079  -3.692784  -1.507105
 H   3.170044  -5.807751  -1.255049
 H   6.743961   0.001294  -0.465847
 H   5.508758  -2.107798  -0.643772
 H   1.816092   0.057687  -0.768740
 H   3.430427   5.835653   0.437486
 H   0.973709   5.873354   0.515865
 H   0.866873   1.737114  -0.577137
 B   7.132037   4.062103   0.111281
 C   8.470100   4.795426   0.288956
 C   8.503838   6.178085   0.536732
 C   9.687347   4.098347   0.207339
 C   9.715631   6.843556   0.698143
 C   10.900365   4.761665   0.368401
 C   10.915120   6.135319   0.613988
 O   5.875383   4.665934   0.174236
 O   6.996540   2.695533  -0.137177
 H   9.728295   7.910865   0.888920
 H   11.832967   4.212395   0.303134
 H   9.676475   3.030753   0.016294
 H   7.571896   6.729079   0.602050
 H   11.859792   6.653007   0.739603
 B   0.007685  -8.177898  -0.000063
 C   0.009212  -9.714047   0.000028
 C   1.125372  -10.431040  -0.463001
 C  -1.105480  -10.433247   0.463161
 C   1.127906  -11.822923  -0.463478
 C  -1.105176  -11.825133   0.463832
 C   0.012076  -12.521035   0.000229
 O   1.064148  -7.377782  -0.437366
 O  -1.050278  -7.379786   0.437258
 H   1.995449  -12.364662  -0.823474
 H  -1.971610  -12.368589   0.823910
 H  -1.974106  -9.892895   0.823559
 H   1.992892  -9.888965  -0.823475
 H   0.013182  -13.605556   0.000307
 B  -7.139715   4.048737  -0.111157
 C  -8.479138   4.779591  -0.288754
 C  -9.695112   4.080313  -0.207005
 C  -8.515401   6.162172  -0.536622
 C  -10.909342   4.741418  -0.368038
 C  -9.728408   6.825432  -0.698004
 C  -10.926604   6.115025  -0.613724
 O  -7.001651   2.682442   0.137378
 O  -5.884192   4.654915  -0.174203
 H  -11.840941   4.190462  -0.302667
 H  -9.743021   7.892703  -0.888855
 H  -7.584464   6.714850  -0.602035
 H  -9.682292   3.012752  -0.015887
 H  -11.872223   6.630988  -0.739321






