%nproc=15
%mem=70GB
%chk=TriPhenanthrene_Catechol_BoronateEster.chk
#P B3LYP/6-311++G(d,p) EmpiricalDispersion=GD3 opt SCF=YQC

Comment

0 1
 C    -5.583474167000000    -2.420772783000000    0.000000000000000
 C    4.888188833000000    -3.625045783000000    0.000000000000000
 C    0.695285833000000    6.045818216999999    0.000000000000000
 C    -0.695287167000000    6.045818216999999    0.000000000000000
 C    5.583474833000000    -2.420772783000000    0.000000000000000
 C    -4.888187167000000    -3.625045783000000    0.000000000000000
 C    -4.886262167000000    -1.199823783000000    0.000000000000000
 C    3.482207833000000    -3.631715783000000    0.000000000000000
 C    1.404053833000000    4.831539217000000    0.000000000000000
 C    -1.404054167000000    4.831539217000000    0.000000000000000
 C    4.886261833000000    -1.199823783000000    0.000000000000000
 C    -3.482208167000000    -3.631715783000000    0.000000000000000
 C    -5.591177167000000    0.021127217000000    0.000000000000000
 C    2.777292833000000    -4.852666783000000    0.000000000000000
 C    2.813885833000000    4.831539217000000    0.000000000000000
 C    -2.813885167000000    4.831539217000000    0.000000000000000
 C    5.591178833000000    0.021127217000000    0.000000000000000
 C    -2.777292167000000    -4.852666783000000    0.000000000000000
 C    -4.882410167000000    1.248750217000000    0.000000000000000
 C    1.359754833000000    -4.852666783000000    0.000000000000000
 C    3.522654833000000    3.603916217000000    0.000000000000000
 C    -3.522655167000000    3.603916217000000    0.000000000000000
 C    4.882409833000000    1.248750217000000    0.000000000000000
 C    -1.359756167000000    -4.852666783000000    0.000000000000000
 C    -3.464874167000000    1.248750217000000    0.000000000000000
 C    0.650987833000000    -3.625045783000000    0.000000000000000
 C    2.813885833000000    2.376295217000000    0.000000000000000
 C    -2.813887167000000    2.376295217000000    0.000000000000000
 C    3.464873833000000    1.248750217000000    0.000000000000000
 C    -0.650987167000000    -3.625045783000000    0.000000000000000
 C    -2.758032167000000    0.024463217000000    0.000000000000000
 C    1.357830833000000    -2.400758783000000    0.000000000000000
 C    1.400200833000000    2.376295217000000    0.000000000000000
 C    -1.400202167000000    2.376295217000000    0.000000000000000
 C    2.758031833000000    0.024463217000000    0.000000000000000
 C    -1.357829167000000    -2.400758783000000    0.000000000000000
 C    -3.468725167000000    -1.199823783000000    0.000000000000000
 C    2.773439832999999    -2.404092783000000    0.000000000000000
 C    0.695285833000000    3.603916217000000    0.000000000000000
 C    -0.695286167000000    3.603916217000000    0.000000000000000
 C    3.468725833000000    -1.199823783000000    0.000000000000000
 C    -2.773440167000000    -2.404092783000000    0.000000000000000
 H    3.354423833000000    5.778069217000001    0.000000000000000
 H    4.612654833000000    3.603915217000000    0.000000000000000
 H    0.855198833000000    1.432329217000000    0.000000000000000
 H    -3.354422167000000    5.778070217000000    0.000000000000000
 H    -4.612655167000000    3.603915217000000    0.000000000000000
 H    -0.855201167000000    1.432328217000000    0.000000000000000
 H    -6.681165167000000    0.015983217000000    0.000000000000000
 H    -5.427411167000000    2.192718217000000    0.000000000000000
 H    -1.668032167000000    0.024463217000000    0.000000000000000
 H    -0.812828167000000    -1.456791783000000    0.000000000000000
 H    -0.814756167000000    -5.796634783000000    0.000000000000000
 H    -3.326741167000000    -5.794051783000000    0.000000000000000
 H    3.326742833000000    -5.794050783000000    0.000000000000000
 H    0.814752833000000    -5.796632783000000    0.000000000000000
 H    0.812831833000000    -1.456790783000000    0.000000000000000
 H    6.681166833000000    0.015983217000000    0.000000000000000
 H    5.427408833000001    2.192719217000000    0.000000000000000
 H    1.668031833000000    0.024463217000000    0.000000000000000
 B    7.049879552000000    -4.070322004000000    -0.000009000000000
 C    8.379819336000001    -4.838188400000000    0.000000000000000
 C    9.605202796000000    -4.150634765000000    0.000003000000000
 C    8.397146277999999    -6.243193028000000    0.000004000000000
 C    10.811178095999999    -4.845544151000000    0.000010000000000
 C    9.601989713000000    -6.940070054999999    0.000010000000000
 C    10.809895233000001    -6.241108475000000    0.000013000000000
 O    6.936788375000001    -2.679172740000000    -0.000003000000000
 O    5.788541210000000    -4.667889053000000    -0.000002000000000
 H    11.750484051999999    -4.303931770000000    0.000012000000000
 H    9.602654850000000    -8.024340772000000    0.000012000000000
 H    7.458290396000000    -6.786206957000000    0.000001000000000
 H    9.605969330000001    -3.066058699000000    0.000000000000000
 H    11.749145485000001    -6.783348273000000    0.000018000000000
 B    -7.049940339999999    -4.070214695000000    -0.000009000000000
 C    -8.379901884000001    -4.838043404000000    0.000000000000000
 C    -8.397154416999999    -6.243033430000000    0.000003000000000
 C    -9.605335193000000    -4.150546908000000    0.000004000000000
 C    -9.601951109000000    -6.939984225000000    0.000010000000000
 C    -10.811269980000001    -4.845533658000000    0.000010000000000
 C    -10.809903974999999    -6.241091314000000    0.000013000000000
 O    -5.788624029000000    -4.667849242000000    -0.000003000000000
 O    -6.936779694000000    -2.679080101000000    -0.000002000000000
 H    -9.602553788000000    -8.024253236000000    0.000012000000000
 H    -11.750608643000000    -4.303974514000000    0.000012000000000
 H    -9.606171328000000    -3.065966899000000    0.000001000000000
 H    -7.458267150000000    -6.785985112000000    0.000000000000000
 H    -11.749122432000000    -6.783386183000000    0.000018000000000
 B    0.000061158000000    8.140535985000000    -0.000009000000000
 C    0.000082821000000    9.676230822999999    0.000000000000000
 C    -1.208047940000000    10.393667014000000    0.000003000000000
 C    1.208188934000000    10.393738904999998    0.000004000000000
 C    -1.209226634000000    11.785526953000000    0.000010000000000
 C    1.209280199000000    11.785602441000000    0.000010000000000
 C    0.000008841000000    12.482198320000000    0.000013000000000
 O    -1.148163728000000    7.347021334000000    -0.000003000000000
 O    1.148238703000000    7.346968650000000    -0.000002000000000
 H    -2.147929782000000    12.328183428999999    0.000012000000000
 H    2.147953528000000    12.328313978000001    0.000012000000000
 H    2.147880821000000    9.852172978000000    0.000001000000000
 H    -2.147701544000000    9.852042666999999    0.000000000000000
 H    -0.000023022000000    13.566732797000000    0.000018000000000




