%nproc=15
%mem=70GB
%chk=T-brick_AmineBorane_Borazine_freq.chk
#P B3LYP/6-311++G(d,p) EmpiricalDispersion=GD3 freq(noraman) SCF=YQC

Restart from T-brick_AmineBorane_Borazine.log

0 1
 N  -1.115145   0.112578   0.052829
 C  -0.719975  -1.211963   0.060933
 C   0.693605  -1.165734   0.059947
 N   1.118529   0.150546   0.048625
 C   1.447878  -2.358871   0.024957
 C   2.926677  -2.369916   0.020989
 C   0.704953  -3.544699  -0.014024
 H   1.232292  -4.491272  -0.005082
 C  -0.696132  -3.566536  -0.021027
 H  -1.205921  -4.523423  -0.022503
 C  -1.462538  -2.398239   0.021011
 C  -2.941246  -2.406502   0.016218
 C   3.635872  -3.331846  -0.713781
 C  -3.657120  -3.239039  -0.855237
 C  -3.676780  -1.586285   0.885446
 C   3.669757  -1.434167   0.756740
 C   5.058937  -1.469821   0.766490
 H   3.152326  -0.666115   1.315056
 C  -5.067678  -1.595754   0.882410
 H  -3.153827  -0.968667   1.607780
 C   5.754769  -2.440133   0.040728
 H   5.614050  -0.732961   1.335144
 C   5.025493  -3.371601  -0.701783
 H   3.094868  -4.051874  -1.316969
 C  -5.047436  -3.246433  -0.864570
 H  -3.115210  -3.867844  -1.552453
 C  -5.771108  -2.423160   0.002852
 H  -5.615970  -0.975955   1.581993
 H  -5.580813  -3.880420  -1.562870
 H   5.551733  -4.128191  -1.271840
 C   0.028385   0.887063   0.036522
 H  -2.062949   0.432949  -0.059531
 C   0.004238   2.349836   0.013730
 C   1.197889   3.052100  -0.209343
 C   1.209897   4.438749  -0.234390
 H   2.111818   2.490151  -0.354733
 C  -1.172738   3.084019   0.210928
 C   0.030232   5.168832  -0.046387
 H   2.141515   4.968239  -0.393351
 C  -1.161563   4.473532   0.175305
 H  -2.114651   2.581780   0.403042
 H  -2.082431   5.026251   0.315565
 N   7.187072  -2.474659   0.052423
 B   7.893763  -2.471144   1.308902
 B   7.914684  -2.510729  -1.191423
 H   7.299431  -2.455578   2.338916
 N   9.322472  -2.500984   1.285025
 H   7.338553  -2.498368  -2.231830
 N   9.342583  -2.548088  -1.142629
 B   10.086252  -2.542052   0.077808
 H   9.810147  -2.507169   2.168101
 H   9.845404  -2.564420  -2.017034
 H   11.277525  -2.569732   0.088206
 N  -7.201848  -2.428362  -0.007587
 B  -7.916221  -3.679426   0.075143
 B  -7.924193  -1.183281  -0.100263
 H  -7.326270  -4.707865   0.166487
 N  -9.343566  -3.647756   0.058888
 H  -7.340414  -0.150054  -0.183769
 N  -9.351232  -1.224357  -0.102936
 B  -10.101767  -2.438991  -0.027000
 H  -9.836934  -4.525240   0.126263
 H  -9.850234  -0.350663  -0.177145
 H  -11.292722  -2.443030  -0.034937
 N   0.044643   6.597652  -0.078273
 B  -0.575211   7.347755   0.987714
 B   0.682214   7.284854  -1.176357
 H  -1.087575   6.787428   1.903030
 N  -0.543751   8.773218   0.921557
 H   1.181490   6.672435  -2.064691
 N   0.682445   8.712275  -1.174049
 B   0.078330   9.496943  -0.143117
 H  -0.969641   9.291344   1.675259
 H   1.121796   9.186072  -1.948934
 H   0.092341   10.687507  -0.169314






