%nproc=15
%mem=70GB
%chk=Pc_Cyanohydrine_Benzobisoxazole.chk
#P B3LYP/6-311++G(d,p) EmpiricalDispersion=GD3 opt SCF=YQC

Comment

0 1
 N    2.352349000000000    2.353581000000000    -0.106935000000000
 C    6.545223000000000    -0.623519000000000    -0.004651000000000
 C    6.506949000000000    0.766356000000000    -0.044129000000000
 C    5.306615000000000    1.457271000000000    -0.077805000000000
 C    0.694402000000000    4.134140000000000    -0.072345000000000
 C    1.449041000000000    5.302996000000000    -0.081392000000000
 C    0.768886000000000    6.499946000000000    -0.043424000000000
 C    -0.626235000000000    6.535277000000000    -0.005295000000000
 H    5.286896000000000    2.448611000000000    -0.109470000000000
 H    2.441236000000000    5.283090000000000    -0.114024000000000
 C    1.088817000000000    2.739747000000000    -0.086507000000000
 C    2.736369000000000    1.084715000000000    -0.079459000000000
 C    5.384667000000000    -1.376044000000000    0.003193000000000
 C    4.142797000000000    0.701090000000000    -0.064827000000000
 C    -0.702135000000000    4.169767000000000    -0.039486000000000
 C    -1.384691000000000    5.381008000000000    -0.007912000000000
 N    -0.045630000000000    1.976161000000000    -0.050973000000000
 N    1.967433000000000    -0.039198000000000    -0.045501000000000
 C    4.174325000000000    -0.691644000000000    -0.027748000000000
 H    5.418593000000000    -2.371732000000000    0.032937000000000
 C    -1.152033000000000    2.783343000000000    -0.027790000000000
 H    -2.386427000000000    5.423716000000000    0.012658000000000
 C    2.783446000000000    -1.134264000000000    -0.023299000000000
 N    -2.427713000000000    2.413713000000000    -0.001479000000000
 N    2.427713000000000    -2.413713000000000    0.001480000000000
 C    -2.783447000000000    1.134264000000000    0.023299000000000
 C    1.152032000000000    -2.783343000000000    0.027790000000000
 C    -4.174325000000000    0.691644000000000    0.027749000000000
 N    -1.967432000000000    0.039195000000000    0.045502000000000
 C    0.702135000000000    -4.169766000000000    0.039488000000000
 N    0.045631000000000    -1.976159000000000    0.050973000000000
 C    -5.384669000000000    1.376042000000000    -0.003193000000000
 C    -4.142797000000000    -0.701091000000000    0.064827000000000
 C    -2.736369000000000    -1.084715000000000    0.079459000000000
 C    -0.694402000000000    -4.134140000000000    0.072346000000000
 C    1.384691000000000    -5.381008000000000    0.007912000000000
 C    -1.088817000000000    -2.739746000000000    0.086509000000000
 C    -6.545223000000000    0.623518000000000    0.004651000000000
 H    -5.418594000000000    2.371732000000000    -0.032936000000000
 C    -5.306616000000000    -1.457273000000000    0.077805000000000
 N    -2.352349000000000    -2.353581000000000    0.106936000000000
 C    -1.449040000000000    -5.302996000000000    0.081393000000000
 C    0.626234000000000    -6.535278000000000    0.005295000000000
 H    2.386428000000000    -5.423717000000001    -0.012658000000000
 C    -6.506949000000000    -0.766357000000000    0.044129000000000
 H    -5.286899000000000    -2.448610000000000    0.109470000000000
 C    -0.768887000000000    -6.499946000000000    0.043426000000000
 H    -2.441237000000000    -5.283089000000000    0.114025000000000
 H    1.073860000000000    -0.054754000000000    -0.036968000000000
 H    -1.073859000000000    0.054753000000000    0.036969000000000
 N    7.842010494000000    1.197977139000000    0.037424345000000
 O    7.797776945000000    -1.068187328000000    -0.048026207000000
 C    8.549684155000000    0.081000327000000    0.002757224000000
 C    10.743063184000000    -1.130306939000000    -0.063885722000000
 C    12.140978564999998    -1.112649406000000    -0.072624958000000
 H    10.231405552000000    -2.089277822000000    -0.111406832000000
 C    12.824507560000001    0.100094245000000    -0.014875873000000
 H    12.694712246000000    -2.046655170000000    -0.125958278000000
 C    12.113234250000000    1.295734552000000    0.052990430000000
 H    13.911427764999999    0.113525015000000    -0.023292470000000
 C    10.716146324000000    1.277356450000000    0.061276907000000
 H    12.642885130000000    2.243891373000000    0.098159166000000
 H    10.173006495999999    2.219988770000000    0.113002162000000
 C    10.011051055999999    0.065183068000000    0.001735274000000
 N    -1.026163942000000    7.857875545000000    0.037454127000000
 O    1.238489762000000    7.764058625000000    -0.047996319000000
 C    0.106032469000000    8.540935200000000    0.002786966000000
 C    1.365050714000000    10.707280021000001    -0.063856207000000
 C    1.377990137000000    12.105247033999998    -0.072595622000000
 H    2.312594542000000    10.174758291000000    -0.111377209000000
 C    0.180495643000000    12.815152663999999    -0.014846678000000
 H    2.323890417000000    12.638407811000000    -0.125928972000000
 C    -1.030424201000000    12.130215741000001    0.053019663000000
 H    0.190854833000000    13.902106482000001    -0.023263414000000
 C    -1.042625120000000    10.733060214999998    0.061306319000000
 H    -1.966762782000000    12.680489747999999    0.098188289000000
 H    -1.996918048000000    10.210679541999999    0.113031602000000
 C    0.153827274000000    10.001605957000001    0.001764829000000
 N    -7.843170797000000    -1.196253570000000    0.092554200000000
 O    -7.796438302000000    1.069742322000000    0.004018964000000
 C    -8.549579376000001    -0.078439833000000    0.059082003000000
 C    -10.741683669000000    1.135517427000000    -0.000956957000000
 C    -12.139642774000000    1.119593413000000    -0.004469768000000
 H    -10.229014668000000    2.093787156000000    -0.051618239000000
 C    -12.824459238999999    -0.092221033000000    0.057386253000000
 H    -12.692409559000000    2.054220295000000    -0.056945227000000
 C    -12.114425208000000    -1.288659996000000    0.124145358000000
 H    -13.911419109000001    -0.104306023000000    0.053032983000000
 C    -10.717294340000000    -1.272014964000000    0.127207565000000
 H    -12.645082632999999    -2.236096244000000    0.172507325000000
 H    -10.175138041000000    -2.215257230000000    0.178125525000000
 C    -10.010919154000000    -0.060800005000000    0.063479467000000
 N    1.024415273000000    -7.858997927000000    0.092524417000000
 O    -1.240015193000000    -7.762686178000000    0.003989076000000
 C    -0.108590233000000    -8.540774399000000    0.059052262000000
 C    -1.370230119000000    -10.705786705000000    -0.000986472000000
 C    -1.384903722000000    -12.103759495000000    -0.004499104000000
 H    -2.317050777000000    -10.172269125000000    -0.051647862000000
 C    -0.188366452000000    -12.814932038000000    0.057357058000000
 H    -2.331403851000000    -12.635939947000001    -0.056974534000000
 C    1.023324790000000    -12.131251660000000    0.124116125000000
 H    -0.200072059000000    -13.901896060000000    0.053003927000000
 C    1.037259421000000    -10.734091131000000    0.127178153000000
 H    1.958920892000000    -12.682516271000001    0.172478202000000
 H    1.992140666000000    -10.212707168000000    0.178096085000000
 C    -0.158206700000000    -10.001378149000001    0.063449911000000




