%nproc=15
%mem=70GB
%chk=Pc_Cyanohydrine_Benzobisoxazole_freq.chk
#P B3LYP/6-311++G(d,p) EmpiricalDispersion=GD3 freq(noraman) SCF=YQC

Restart from Pc_Cyanohydrine_Benzobisoxazole.log

0 1
 N  -2.409749  -2.364176   0.000475
 C  -6.484040   0.781767   0.000074
 C  -6.533864  -0.634117   0.000185
 C  -5.366969  -1.390996   0.000323
 C  -0.759719  -4.160471   0.000496
 C  -1.530075  -5.321066   0.000414
 C  -0.779030  -6.482855   0.000298
 C   0.632200  -6.532661   0.000225
 H  -5.375008  -2.472566   0.000362
 H  -2.611472  -5.305245   0.000445
 C  -1.131953  -2.745636   0.000421
 C  -2.801122  -1.110120   0.000390
 C  -5.327880   1.531772   0.000088
 C  -4.181300  -0.658584   0.000358
 C   0.654457  -4.181429   0.000409
 C   1.389902  -5.359714   0.000260
 N  -0.023692  -1.951485   0.000281
 N  -2.021833   0.024021   0.000340
 C  -4.159927   0.764086   0.000244
 H  -5.310884   2.612952   0.000018
 C   1.063176  -2.773288   0.000283
 H   2.471693  -5.368584   0.000160
 C  -2.771899   1.178995   0.000211
 N   2.349069  -2.423641   0.000196
 N  -2.349070   2.423638   0.000081
 C   2.771897  -1.178998   0.000044
 C  -1.063178   2.773287  -0.000001
 C   4.159924  -0.764087  -0.000016
 N   2.021830  -0.024024  -0.000058
 C  -0.654460   4.181428  -0.000099
 N   0.023690   1.951484  -0.000048
 C   5.327881  -1.531774   0.000036
 C   4.181297   0.658581  -0.000137
 C   2.801120   1.110117  -0.000142
 C   0.759718   4.160469  -0.000189
 C  -1.389902   5.359712   0.000010
 C   1.131951   2.745633  -0.000144
 C   6.484036  -0.781766  -0.000016
 H   5.310884  -2.612953   0.000111
 C   5.366967   1.390995  -0.000207
 N   2.409748   2.364174  -0.000209
 C   1.530075   5.321061  -0.000161
 C  -0.632199   6.532661   0.000019
 H  -2.471694   5.368586   0.000060
 C   6.533861   0.634118  -0.000153
 H   5.375000   2.472566  -0.000323
 C   0.779031   6.482852  -0.000049
 H   2.611471   5.305237  -0.000180
 H  -1.009641   0.010924   0.000215
 H   1.009638  -0.010928   0.000111
 N  -7.866647  -1.024318   0.000072
 O  -7.777800   1.230068  -0.000058
 C  -8.545493   0.080600  -0.000088
 C  -10.577827   1.517447  -0.000569
 C  -11.963194   1.645733  -0.000723
 H  -9.946529   2.396742  -0.000714
 C  -12.772903   0.510372  -0.000529
 H  -12.411026   2.632721  -0.000995
 C  -12.192839  -0.759936  -0.000179
 H  -13.852035   0.613840  -0.000649
 C  -10.810614  -0.897661  -0.000029
 H  -12.820782  -1.643376  -0.000022
 H  -10.347578  -1.876420   0.000238
 C  -9.993338   0.243074  -0.000229
 N   1.023716  -7.865257   0.000060
 O  -1.229107  -7.776944   0.000194
 C  -0.081342  -8.544796   0.000063
 C  -1.517225  -10.578712  -0.000330
 C  -1.645346  -11.964241  -0.000487
 H  -2.396630  -9.947508  -0.000401
 C  -0.510183  -12.774172  -0.000391
 H  -2.632438  -12.412038  -0.000686
 C   0.759717  -12.193269  -0.000135
 H  -0.613405  -13.853352  -0.000513
 C   0.897026  -10.810864   0.000020
 H   1.643548  -12.820798  -0.000054
 H   1.875666  -10.347529   0.000217
 C  -0.243367  -9.993211  -0.000080
 N   7.866644   1.024321  -0.000223
 O   7.777803  -1.230067   0.000005
 C   8.545491  -0.080595  -0.000127
 C   10.577829  -1.517438  -0.000242
 C   11.963196  -1.645722  -0.000272
 H   9.946532  -2.396734  -0.000300
 C   12.772903  -0.510360  -0.000191
 H   12.411030  -2.632709  -0.000360
 C   12.192837   0.759947  -0.000076
 H   13.852035  -0.613825  -0.000215
 C   10.810612   0.897670  -0.000047
 H   12.820778   1.643388  -0.000007
 H   10.347573   1.876427   0.000041
 C   9.993337  -0.243067  -0.000134
 N  -1.023713   7.865255   0.000025
 O   1.229107   7.776939  -0.000014
 C   0.081350   8.544793   0.000025
 C   1.517229   10.578709  -0.000182
 C   1.645350   11.964238  -0.000170
 H   2.396634   9.947506  -0.000375
 C   0.510186   12.774169   0.000087
 H   2.632442   12.412036  -0.000363
 C  -0.759713   12.193265   0.000336
 H   0.613407   13.853348   0.000094
 C  -0.897022   10.810859   0.000321
 H  -1.643544   12.820793   0.000542
 H  -1.875662   10.347524   0.000509
 C   0.243372   9.993207   0.000058






