%nproc=15
%mem=70GB
%chk=N-TrisPhenyl_PrimaryAmine_Imide_freq.chk
#P B3LYP/6-311++G(d,p) EmpiricalDispersion=GD3 freq(noraman) SCF=YQC NoSymm

Restart from N-TrisPhenyl_PrimaryAmine_Imide.log

0 1
 N  -0.050914  -0.075048  -0.003504
 C   1.357031   0.018482  -0.140114
 C  -0.826405   1.100040   0.163055
 C  -0.683473  -1.343497  -0.032182
 C  -0.542733   2.252024  -0.581785
 C   2.037242  -0.780214  -1.068446
 C  -1.889523  -1.522300  -0.722040
 C  -1.889032   1.128735   1.075397
 C  -1.292525   3.407573  -0.409538
 H   0.273628   2.240554  -1.293050
 C   2.091513   0.911515   0.650744
 C   3.417456  -0.699324  -1.193370
 H   1.479775  -1.471015  -1.688519
 C  -0.113255  -2.438986   0.628975
 C  -2.517501  -2.760243  -0.738659
 H  -2.337507  -0.683981  -1.240693
 C  -2.657914   2.274294   1.229141
 H  -2.114904   0.245790   1.660079
 C  -2.358540   3.421624   0.491980
 H  -1.070489   4.288225  -0.996481
 C   3.468522   1.014354   0.507914
 H   1.577301   1.531065   1.374781
 C   4.138818   0.203908  -0.410322
 H   3.931159  -1.314229  -1.919570
 C  -0.724948  -3.684585   0.590298
 H   0.816553  -2.312048   1.169150
 C  -1.934136  -3.849126  -0.088014
 H  -3.443685  -2.888989  -1.281771
 H  -3.470228   2.288021   1.942804
 H   4.026459   1.700703   1.129996
 H  -0.280583  -4.521155   1.111887
 C  -4.369653   6.517211   0.227584
 C  -5.038861   7.580720  -0.354926
 H  -5.063392   7.699306  -1.431311
 C  -5.674437   8.486000   0.501977
 H  -6.208664   9.332244   0.085667
 C  -5.631773   8.317903   1.890436
 H  -6.133631   9.036553   2.528027
 C  -4.953287   7.238379   2.466678
 H  -4.913014   7.095923   3.539688
 C  -4.329436   6.348628   1.607969
 C  -3.539556   5.123490   1.913589
 C  -3.612144   5.403913  -0.408774
 N  -3.138503   4.602707   0.658949
 O  -3.422344   5.200277  -1.582955
 O  -3.279882   4.647561   2.991689
 C   7.681969   0.434554  -1.454198
 C   8.783324   0.504213  -2.291083
 H   8.664972   0.488594  -3.367659
 C   10.042844   0.593796  -1.688290
 H   10.930166   0.649743  -2.308266
 C   10.177336   0.611821  -0.295639
 H   11.166743   0.681473   0.141470
 C   9.056560   0.542161   0.539095
 H   9.146327   0.555943   1.618455
 C   7.815511   0.455098  -0.069541
 C   6.459245   0.365602   0.539415
 C   6.234202   0.336862  -1.789904
 N   5.554193   0.298350  -0.548040
 O   5.717693   0.295450  -2.879742
 O   6.160936   0.352684   1.708621
 C  -3.683380  -7.022943  -0.839111
 C  -4.339272  -7.997819  -1.572356
 H  -4.526011  -7.865265  -2.631046
 C  -4.746272  -9.149352  -0.889646
 H  -5.263244  -9.935770  -1.427353
 C  -4.497577  -9.303541   0.478661
 H  -4.825742  -10.207009   0.979555
 C  -3.832697  -8.311742   1.208080
 H  -3.633131  -8.418544   2.267342
 C  -3.433830  -7.177377   0.520814
 C  -2.720197  -5.966238   1.012871
 C  -3.134759  -5.709025  -1.276057
 N  -2.570729  -5.123937  -0.116017
 O  -3.152675  -5.217298  -2.377920
 O  -2.335561  -5.724189   2.130762






