%nproc=15
%mem=70GB
%chk=N-TrisPhenyl_PrimaryAmine_Imide.chk
#P B3LYP/6-311++G(d,p) EmpiricalDispersion=GD3 opt SCF=YQC NoSymm

Comment

0 1
 N    0.000000000000000    0.000000000000000    0.000000000000000
 C    1.486664194000000    0.115830323000000    -0.171934194000000
 C    -0.789065806000000    1.237760323000000    0.199745806000000
 C    -0.613895806000000    -1.236089677000000    -0.038794194000000
 C    -0.462675806000000    2.500160323000000    -0.322134194000000
 C    2.176224194000000    -0.918259677000000    -0.846584194000000
 C    -1.765025806000000    -1.441179677000000    -0.822204194000000
 C    -2.007925806000000    1.140170323000000    0.910585806000000
 C    -1.297715806000000    3.610210323000000    -0.126194194000000
 H    0.438864194000000    2.642570323000000    -0.911754194000000
 C    2.273194194000000    1.157440323000000    0.348705806000000
 C    3.570374194000000    -0.927389677000000    -0.965384194000000
 H    1.632104194000000    -1.749019677000000    -1.289124194000000
 C    -0.125815806000000    -2.315259677000000    0.720105806000000
 C    -2.414125806000000    -2.677449677000000    -0.833324194000000
 H    -2.163745806000000    -0.629609677000000    -1.426834194000000
 C    -2.865415806000000    2.233870323000000    1.065575806000000
 H    -2.315445806000000    0.194440323000000    1.350765806000000
 C    -2.504725806000000    3.472930323000000    0.555025806000000
 H    -1.010125806000000    4.580640323000000    -0.521804194000000
 C    3.666684194000001    1.177220323000000    0.186235806000000
 H    1.821684194000000    1.969990323000000    0.911145806000000
 C    4.315594194000000    0.127230323000000    -0.457594194000000
 H    4.064904194000000    -1.761929677000000    -1.456734194000000
 C    -0.759375806000000    -3.559559677000000    0.685245806000000
 H    0.753504194000000    -2.187099677000000    1.347095806000000
 C    -1.906875806000000    -3.737209677000000    -0.084874194000000
 H    -3.314085806000000    -2.810259677000000    -1.427784194000000
 H    -3.812175806000000    2.108150323000000    1.585245806000000
 H    4.245704194000000    2.009030323000000    0.578395806000000
 H    -0.358405806000000    -4.386819677000000    1.264815806000000
 C    -4.258319144999999    6.707824523000000    0.522521896000000
 C    -4.572368943000000    8.000869872000001    0.145913336000000
 H    -4.010317602000000    8.511028906000000    -0.630145377000000
 C    -5.640307325000000    8.619966378999999    0.802633756000000
 H    -5.921296153000000    9.637475894000000    0.536200595000000
 C    -6.358867002000000    7.941031409000000    1.806804607000000
 H    -7.186845830000000    8.441511884000001    2.306032638000000
 C    -6.020154836000000    6.633206604000000    2.167232854000000
 H    -6.564674422000000    6.097633231000000    2.938664010000000
 C    -4.961086903000000    6.044390837000000    1.500827780000000
 C    -4.376571576000000    4.715619794000000    1.644483270000000
 C    -3.220510649000000    5.807364738000000    0.032535678000000
 N    -3.336414690000000    4.623804687000000    0.738028574000000
 O    -2.464499596000000    6.163895831000000    -0.854025134000000
 O    -4.820287977000000    3.933508865000000    2.466673656000000
 C    7.872906232000000    -0.260271699000000    -1.315533488000000
 C    9.001562525000001    -0.752413582000000    -1.945103894000000
 H    8.930881295000001    -1.543635275000000    -2.684971094000000
 C    10.231626222999999    -0.189514820000000    -1.591348516000000
 H    11.145004031999999    -0.547368522000000    -2.063522923000000
 C    10.303155820000001    0.837758535000000    -0.629458310000000
 H    11.271110044000000    1.262076698000000    -0.368159651000000
 C    9.145468886000000    1.317121535000000    -0.008964757000000
 H    9.185043986000000    2.108044457000000    0.733545303000000
 C    7.942456782000000    0.743900892000000    -0.378565342000000
 C    6.584799313000000    1.021580400000000    0.077052740000000
 C    6.470096934000000    -0.630650384000000    -1.466882405000000
 N    5.738526725000000    0.170480846000000    -0.609583070000000
 O    6.144728024000000    -1.500362361000000    -2.255801510000000
 O    6.382178786000000    1.871562890000000    0.926201413000000
 C    -3.897723179000000    -6.766244778000000    -0.719034808000000
 C    -4.803166569000000    -7.608238346000000    -1.338426974000000
 H    -5.358087196000000    -7.287830565000000    -2.214687796000000
 C    -4.971811842000000    -8.884180216000001    -0.791997015000000
 H    -5.674357458000000    -9.578893074000000    -1.249239474000000
 C    -4.241467693000000    -9.282464524000000    0.345371365000000
 H    -4.388113840000000    -10.280359566000000    0.755198970000000
 C    -3.331519905000000    -8.410713741000000    0.951247400000000
 H    -2.761767346000000    -8.703650299000000    1.827612986000000
 C    -3.183216453000000    -7.155773860000000    0.389503154000000
 C    -2.327467127000000    -6.041181827000000    0.781045287000000
 C    -3.502680904000000    -5.400395202000000    -1.045159523000000
 N    -2.556110608000000    -5.012871942000000    -0.114676442000000
 O    -3.992912184000000    -4.830077619000000    -2.003840049000000
 O    -1.599966969000000    -6.135796377000000    1.753860988000000




