%nproc=15
%mem=70GB
%chk=DBA18_Catechol_BoronateEster.chk
#P B3LYP/6-311++G(d,p) EmpiricalDispersion=GD3 opt SCF=YQC

Comment

0 1
 C    4.268980742000000    0.714070222000000    0.000000000000000
 C    5.485820742000000    1.427250222000000    0.000000000000000
 C    6.653358742000000    0.697185222000000    0.000000000000000
 C    6.653340742000000    -0.697276778000000    0.000000000000000
 C    5.485773742000000    -1.427277778000000    0.000000000000000
 C    4.268958742000000    -0.714036778000000    0.000000000000000
 H    5.491464742000000    2.508811222000000    0.000000000000000
 H    5.491292742000000    -2.508840778000000    0.000000000000000
 C    -1.516059070000000    4.054085222000000    0.000000000000000
 C    -1.506797070000000    5.464505222000000    0.000000000000000
 C    -2.722787070000000    6.110634222000000    0.000000000000000
 C    -3.930446070000000    5.413394222000000    0.000000000000000
 C    -3.978927070000000    4.037261222000000    0.000000000000000
 C    -2.752808070000000    3.340052222000000    0.000000000000000
 H    -0.572908070000000    6.010087222000000    0.000000000000000
 H    -4.918315070000000    3.501217222000000    0.000000000000000
 C    -1.516101070000000    -4.054000778000000    0.000000000000000
 C    -1.506849070000000    -5.464403778000000    0.000000000000000
 C    -2.722852070000000    -6.110536777999999    0.000000000000000
 C    -3.930513069999999    -5.413353778000000    0.000000000000000
 C    -3.978982070000000    -4.037205778000000    0.000000000000000
 C    -2.752938070000000    -3.339971778000000    0.000000000000000
 H    -0.573000070000000    -6.010048778000000    0.000000000000000
 H    -4.918425070000000    -3.501242778000000    0.000000000000000
 C    -2.752973465999999    -1.920029778000000    0.000000000000000
 C    -2.752973465999999    -0.710029778000000    0.000000000000000
 C    -2.752973465999999    0.709970222000000    0.000000000000000
 C    -2.752973465999999    1.919970222000000    0.000000000000000
 C    -0.286317393000000    -3.344029778000000    0.000000000000000
 C    0.761573346000000    -2.739029778000000    0.000000000000000
 C    1.991329419000000    -2.029029778000000    0.000000000000000
 C    3.039220158000000    -1.424029778000000    0.000000000000000
 C    -0.286317393000000    3.343970222000000    0.000000000000000
 C    0.761573346000000    2.738970222000000    0.000000000000000
 C    1.991329419000000    2.028970222000000    0.000000000000000
 C    3.039220158000000    1.423970222000000    0.000000000000000
 B    8.748067510000000    -0.000122246000000    -0.000009000000000
 C    10.283762347000000    -0.000154646000000    0.000000000000000
 C    11.001206984000000    1.207971100000000    0.000003000000000
 C    11.001261982999999    -1.208265774000000    0.000004000000000
 C    12.393066931000000    1.209140064000000    0.000010000000000
 C    12.393125511999999    -1.209366770000000    0.000010000000000
 C    13.089729844000001    -0.000100281000000    0.000013000000000
 O    7.954560886000000    1.148108187000000    -0.000003000000000
 O    7.954492148000001    -1.148294244000000    -0.000002000000000
 H    12.935729970000001    2.147839418000000    0.000012000000000
 H    12.935830487000000    -2.148043892000000    0.000012000000000
 H    10.459689488000000    -2.147953875000000    0.000001000000000
 H    10.459589206000000    2.147628490000000    0.000000000000000
 H    14.174264322000001    -0.000076000000000    0.000018000000000
 B    -4.373901903000000    7.576135487000000    -0.000009000000000
 C    -5.141715891000000    8.906105530000000    0.000000000000000
 C    -6.546705726000000    8.923373614000001    0.000003000000000
 C    -4.454205831000000    10.131531229000000    0.000004000000000
 C    -7.243643186000000    10.128178019000000    0.000010000000000
 C    -5.149179234000000    11.337473707999999    0.000010000000000
 C    -6.544736904999999    11.336123149000001    0.000013000000000
 O    -4.971550410000000    6.314825790000000    -0.000003000000000
 O    -2.982768561000000    7.462959443000000    -0.000002000000000
 H    -8.327912189999999    10.128792699000000    0.000012000000000
 H    -4.607609693000000    12.276806377000000    0.000012000000000
 H    -3.369625813000000    10.132355359000000    0.000001000000000
 H    -7.089667800000000    7.984492356000000    0.000000000000000
 H    -7.087021378000000    12.275347609000001    0.000018000000000
 B    -4.374100370000000    -7.575990063999999    -0.000009000000000
 C    -5.141970490000000    -8.905927698999999    -0.000000000000000
 C    -4.454420286000000    -10.131313084000000    0.000003000000000
 C    -6.546975166000000    -8.923250705999997    0.000004000000000
 C    -5.149333049000000    -11.337286436999999    0.000010000000000
 C    -7.243855566999999    -10.128092190000000    0.000010000000000
 C    -6.544897369000000    -11.335999666999999    0.000013000000000
 O    -2.982950789000000    -7.462902782000000    -0.000003000000000
 O    -4.971663888000000    -6.314650049000000    -0.000002000000000
 H    -4.607723298000000    -12.276593910000001    0.000012000000000
 H    -8.328126286000000    -10.128754291000000    0.000012000000000
 H    -7.089986467000000    -7.984393304000000    0.000001000000000
 H    -3.369844223000000    -10.132082653999998    -0.000000000000000
 H    -7.087139797000000    -12.275248401000001    0.000018000000000




