%nproc=15
%mem=70GB
%chk=DBA18_Catechol_BoronateEster_freq.chk
#P B3LYP/6-311++G(d,p) EmpiricalDispersion=GD3 freq(noraman) SCF=YQC

Restart from DBA18_Catechol_BoronateEster.log

0 1
 C   1.181037   4.122152   0.000000
 C   1.062713   5.530640   0.000000
 C   2.224722   6.264496   0.000000
 C   3.486240   5.660301   0.000000
 C   3.642853   4.294918   0.000000
 C   2.471269   3.504219   0.000000
 H   0.090487   6.004149   0.000000
 H   4.621218   3.834225   0.000000
 C  -4.270417   0.388067   0.000000
 C  -5.540968   1.007363   0.000000
 C  -6.645138   0.189063   0.000000
 C  -6.537647  -1.205545   0.000000
 C  -5.321117  -1.844969   0.000000
 C  -4.160483  -1.038278   0.000000
 H  -5.631160   2.084999   0.000000
 H  -5.245098  -2.923698   0.000000
 C   2.979284  -3.083920   0.000000
 C   4.258243  -3.685655   0.000000
 C   4.312811  -5.058912   0.000000
 C   3.158831  -5.849360   0.000000
 C   1.898048  -5.302327   0.000000
 C   1.799040  -3.892357   0.000000
 H   5.154413  -3.080417   0.000000
 H   1.009909  -5.919290   0.000000
 C   0.523426  -3.287771   0.000000
 C  -0.574656  -2.764859   0.000001
 C  -1.794044  -2.180928   0.000000
 C  -2.889829  -1.653220   0.000000
 C   2.876385  -1.676041   0.000001
 C   2.785526  -0.463207   0.000001
 C   2.681627   0.884787   0.000000
 C   2.585519   2.097216   0.000000
 C  -3.108988   1.190439   0.000000
 C  -2.107044   1.879881   0.000000
 C  -0.991607   2.643875   0.000000
 C   0.013224   3.329103   0.000000
 B   3.760543   7.852085  -0.000000
 C   4.423175   9.235485  -0.000000
 C   3.642917   10.404289  -0.000000
 C   5.822958   9.360066  -0.000000
 C   4.243327   11.659789  -0.000000
 C   6.424928   10.614820  -0.000000
 C   5.634902   11.765235  -0.000001
 O   2.381740   7.628306  -0.000000
 O   4.450432   6.637506  -0.000000
 H   3.631499   12.554854  -0.000001
 H   7.505841   10.699080  -0.000000
 H   6.436692   8.465875  -0.000000
 H   2.561492   10.322050  -0.000000
 H   6.103398   12.743326  -0.000001
 B  -8.680435  -0.669265  -0.000000
 C  -10.209803  -0.787173  -0.000000
 C  -10.831828  -2.047334  -0.000000
 C  -11.017642   0.362738  -0.000000
 C  -12.219324  -2.155169  -0.000000
 C  -12.405269   0.256628  -0.000000
 C  -13.006487  -1.002793  -0.000000
 O  -7.797248  -1.751459  -0.000000
 O  -7.973525   0.535489  -0.000000
 H  -12.688514  -3.132582  -0.000000
 H  -13.018736   1.150570  -0.000000
 H  -10.550150   1.341358  -0.000000
 H  -10.219855  -2.942729  -0.000000
 H  -14.087782  -1.086161  -0.000001
 B   4.919874  -7.182734  -0.000000
 C   5.786709  -8.448223  -0.000000
 C   7.189047  -8.356784  -0.000000
 C   5.194827  -9.722816  -0.000000
 C   7.976236  -9.504434  -0.000000
 C   5.980589  -10.871443  -0.000001
 C   7.371883  -10.762352  -0.000001
 O   5.415424  -5.876749   0.000000
 O   3.523071  -7.172968  -0.000000
 H   9.057292  -9.422009  -0.000001
 H   5.513186  -11.849712  -0.000001
 H   4.113576  -9.807329  -0.000000
 H   7.658454  -7.379082  -0.000000
 H   7.984763  -11.657074  -0.000001






