%nproc=15
%mem=70GB
%chk=P_BoronicAcid_BoronateEster.chk
#P B3LYP/6-311++G(d,p) EmpiricalDispersion=GD3 opt SCF=YQC

Comment

0 1
 C    3.834450000000000    2.028850000000000    0.170710000000000
 C    4.206330000000000    0.766460000000000    -0.028510000000000
 C    3.061750000000000    -0.118750000000000    -0.027720000000000
 C    2.370940000000000    1.922770000000000    0.075610000000000
 N    1.928970000000000    0.690610000000000    -0.011520000000000
 C    1.610010000000000    3.228620000000000    0.050410000000000
 C    0.261520000000000    3.197680000000000    0.091160000000000
 N    -0.610890000000000    2.132640000000000    0.135180000000000
 C    -1.936010000000000    2.503710000000000    0.103780000000000
 C    -0.610970000000000    4.367110000000000    0.089560000000000
 C    -1.888450000000000    3.964100000000000    0.143740000000000
 C    -3.061790000000000    1.761380000000000    0.025080000000000
 C    -2.951580000000000    0.254180000000000    -0.012510000000000
 N    -1.879610000000000    -0.503420000000000    -0.000070000000000
 C    -3.782560000000000    -1.754340000000000    0.057960000000000
 C    -4.212200000000000    -0.502070000000000    -0.047320000000000
 C    -0.176010000000000    -3.028340000000000    -0.060020000000000
 N    0.671370000000000    -1.928970000000000    -0.029400000000000
 C    1.995920000000000    -2.349370000000000    -0.010440000000000
 C    1.965000000000000    -3.733700000000000    0.015910000000000
 C    0.639340000000000    -4.146480000000000    -0.126480000000000
 C    3.147630000000000    -1.476470000000000    -0.015980000000000
 C    -1.620780000000000    -2.974640000000000    -0.017310000000000
 C    -2.336100000000000    -1.819480000000000    0.013870000000000
 H    4.463900000000001    2.885230000000000    0.286010000000000
 H    5.237850000000000    0.476960000000000    -0.118110000000000
 C    2.358930000000000    4.521340000000000    -0.050440000000000
 H    -0.306820000000000    1.166360000000000    0.052270000000000
 H    -0.301730000000000    5.398590000000000    0.063860000000000
 H    -2.734880000000000    4.629900000000000    0.185090000000000
 C    -4.397420000000000    2.434930000000000    -0.006460000000000
 H    -4.450990000000000    -2.596530000000000    0.127720000000000
 H    -5.226140000000000    -0.160350000000000    -0.095230000000000
 H    0.368460000000000    -0.960990000000000    -0.016620000000000
 H    2.820260000000000    -4.392510000000000    0.077770000000000
 H    0.310690000000000    -5.174130000000000    -0.203890000000000
 C    4.531580000000000    -2.102480000000000    -0.035610000000000
 C    -2.374400000000000    -4.291369999999999    0.032450000000000
 C    -4.741190000000000    3.311750000000000    -1.050370000000000
 C    -5.977000000000000    3.965120000000000    -1.062590000000000
 H    -4.031900000000000    3.519110000000000    -1.850140000000000
 C    -6.911260000000000    3.708380000000000    -0.062580000000000
 H    -6.208570000000000    4.674480000000000    -1.853500000000000
 C    -6.599060000000000    2.823450000000000    0.966560000000000
 C    -5.340520000000000    2.215570000000000    1.011330000000000
 H    -7.333480000000000    2.610180000000000    1.739570000000000
 H    -5.112220000000000    1.548090000000000    1.840350000000000
 C    3.256720000000000    4.734290000000000    -1.112880000000000
 C    4.070410000000000    5.869650000000000    -1.151690000000000
 H    3.370520000000000    3.985610000000000    -1.895730000000000
 C    3.946060000000000    6.847820000000000    -0.169600000000000
 H    4.807020000000000    5.983140000000000    -1.943480000000000
 C    3.020070000000000    6.683940000000000    0.858240000000000
 C    2.251750000000000    5.517520000000001    0.933110000000000
 H    2.906760000000000    7.458130000000000    1.613260000000000
 H    1.565100000000000    5.396900000000000    1.768870000000000
 C    4.872220000000000    -3.027410000000000    -1.039010000000000
 C    6.122890000000000    -3.651820000000000    -1.053390000000000
 H    4.145120000000000    -3.295470000000000    -1.803690000000000
 C    7.080580000000000    -3.314800000000000    -0.101320000000000
 H    6.344820000000000    -4.401200000000000    -1.808820000000000
 C    6.772130000000000    -2.389760000000000    0.892460000000000
 C    5.494670000000000    -1.823420000000000    0.950700000000000
 H    7.522030000000000    -2.113930000000000    1.629310000000000
 H    5.266900000000000    -1.133430000000000    1.760630000000000
 C    -3.297960000000000    -4.666250000000000    -0.957890000000000
 C    -3.944920000000000    -5.905850000000000    -0.903880000000000
 H    -3.528960000000000    -3.989670000000000    -1.777670000000000
 C    -3.627980000000000    -6.818279999999999    0.100320000000000
 H    -4.684150000000000    -6.165690000000000    -1.657210000000000
 C    -2.689640000000000    -6.480600000000001    1.070970000000000
 C    -2.091670000000000    -5.217730000000000    1.053630000000000
 H    -2.411560000000000    -7.200630000000000    1.836380000000000
 H    -1.358000000000000    -4.974810000000000    1.820860000000000
 B    -8.339524648999999    4.300152610000000    -0.058779059000000
 O    -8.758174068000001    5.201776096000000    -1.034487804000000
 O    -9.327651478000000    4.123922000000000    0.907000497000000
 C    -10.027546894000000    5.587499333000000    -0.662121198000000
 C    -10.373790572000001    4.932166576000000    0.518301119000000
 C    -10.886287845000000    6.468741862000000    -1.290119874000000
 C    -11.596635344999999    5.124272586000000    1.131614001000000
 C    -12.130036762000000    6.672908954000000    -0.678773126000000
 C    -12.477344641000000    6.015561991000000    0.505277292000000
 H    -10.605725261000000    6.971596104000000    -2.206668700000000
 H    -11.853812094000000    4.609360272000000    2.048326967000000
 H    -12.836849525000000    7.355597908000000    -1.135174301000000
 H    -13.448429634000000    6.198062778000000    0.949842430000000
 B    4.653897531000000    8.066891719999999    -0.187056709000000
 O    5.614276225000000    8.404636562000000    -1.137741192000000
 O    4.484326915000000    9.099885464000000    0.731829432000000
 C    6.043624247000000    9.669002624999999    -0.797468638000000
 C    5.356617769000000    10.091715149000001    0.339227793000000
 C    6.989917364000000    10.460874954999998    -1.418656453000000
 C    5.580466833000000    11.328104609000000    0.913370154000000
 C    7.226873005000000    11.717501849000000    -0.846746243000000
 C    6.537754969999999    12.141513606000000    0.293443894000000
 H    7.516823351000000    10.121231727000000    -2.301069090000000
 H    5.040415370000000    11.644961014000000    1.796310507000000
 H    7.960660633999999    12.373640612999999    -1.299502424000000
 H    6.747179182000000    13.120290050999998    0.708279924000000
 B    8.402137480000000    -4.103228000000000    -0.105186878000000
 O    8.813733549000000    -5.039753743000000    -1.050548190000000
 O    9.412725409000000    -3.861243859000000    0.822357040000000
 C    10.101571629000000    -5.380358026999999    -0.698115954000000
 C    10.465760077000001    -4.663826636000000    0.440607934000000
 C    10.962276722000000    -6.270953039000000    -1.310026093000000
 C    11.709439401999999    -4.800929710000000    1.026160011000000
 C    12.227067385000000    -6.419741173000000    -0.726496242000000
 C    12.592375189000002    -5.701007478000000    0.415727584000000
 H    10.667651429999999    -6.821586222000000    -2.194129332000001
 H    11.980422712999999    -4.238751360000001    1.910558552000000
 H    12.936220561000001    -7.107386576000000    -1.171688443000000
 H    13.579497067000000    -5.841754411000000    0.839675058000000
 B    -4.411541207000000    -8.289643433000000    0.136046583000000
 O    -5.360159019000000    -8.696747090000001    -0.799148937000000
 O    -4.206448462000000    -9.279664744000000    1.094157630000000
 C    -5.745936627000000    -9.960811408000000    -0.409195459000000
 C    -5.044483269000000    -10.315226721000000    0.741932478000000
 C    -6.664843797000000    -10.808115386000001    -0.997491587000000
 C    -5.225754299000000    -11.535227672000000    1.364142447000000
 C    -6.858523116000001    -12.048860850000001    -0.376702225000000
 C    -6.154913797000000    -12.404365479999999    0.777963774000000
 H    -7.203361259000000    -10.521287526000000    -1.891565534000000
 H    -4.674877380000000    -11.798830127000000    2.257834563000000
 H    -7.569626242000000    -12.746799446000001    -0.802336554000000
 H    -6.330626846000000    -13.372813375000000    1.230936578000000




