%nproc=15
%mem=70GB
%chk=TPG_PrimaryAmine_Ketoenamine_freq.chk
#P B3LYP/6-311++G(d,p) EmpiricalDispersion=GD3 freq(noraman) SCF=YQC NoSymm

Restart from TPG_PrimaryAmine_Ketoenamine.log

0 1
 C   1.230560  -0.716161  -0.123277
 C  -0.021147  -1.347862  -0.084645
 O  -0.118199  -2.697383  -0.104579
 C  -1.202688  -0.599755  -0.030556
 C  -1.123188   0.800509  -0.017455
 O  -2.243208   1.558559   0.026557
 C   0.115546   1.450704  -0.056054
 C   1.287600   0.682143  -0.109900
 O   2.503668   1.273871  -0.156177
 H  -3.009361   0.964990   0.005569
 H   2.370560   2.233694  -0.184116
 H   0.775988  -3.062467  -0.187511
 H   6.376451  -3.684049   2.104814
 C   6.941019  -3.848292   1.195523
 C   8.199740  -4.437144   1.229960
 H   8.632825  -4.730547   2.179642
 C   8.904189  -4.652965   0.044472
 H   9.884453  -5.115774   0.070001
 C   8.341715  -4.275454  -1.173806
 H   8.879955  -4.450413  -2.098529
 C   7.085577  -3.674542  -1.207304
 H   6.660198  -3.401629  -2.164877
 C   6.370986  -3.452082  -0.022461
 C   5.006923  -2.827051   0.009418
 O   4.316130  -2.943557   1.038246
 C   4.529132  -2.087367  -1.141078
 C   3.306287  -1.479613  -1.158517
 H   5.155807  -1.961877  -2.010867
 N   2.395664  -1.527304  -0.151208
 H   2.994678  -0.908625  -2.027146
 H   2.759429  -1.952300   0.707310
 H  -6.179172  -3.559304   2.567112
 C  -6.664455  -3.972531   1.691745
 C  -7.798267  -4.768126   1.809337
 H  -8.202932  -4.989875   2.790467
 C  -8.416649  -5.278694   0.666913
 H  -9.303379  -5.896169   0.757445
 C  -7.893155  -4.988783  -0.592052
 H  -8.375631  -5.373955  -1.483280
 C  -6.750157  -4.201441  -0.709270
 H  -6.367637  -3.976100  -1.696829
 C  -6.121002  -3.685447   0.431733
 C  -4.898914  -2.816224   0.373920
 O  -4.585374  -2.152017   1.378730
 C  -4.099909  -2.780745  -0.834178
 C  -2.966964  -2.025011  -0.935107
 H  -4.362701  -3.393184  -1.683216
 N  -2.486069  -1.203992   0.034958
 H  -2.377546  -2.047080  -1.846045
 H  -2.975406  -1.300066   0.930056
 H   0.209324   7.277685   2.455902
 C   0.033434   7.891497   1.581355
 C  -0.083145   9.272669   1.686818
 H  -0.007011   9.748387   2.658126
 C  -0.295126   10.046470   0.544670
 H  -0.382237   11.124264   0.625485
 C  -0.390284   9.429708  -0.701782
 H  -0.544175   10.026878  -1.593485
 C  -0.285554   8.044694  -0.806005
 H  -0.348031   7.586196  -1.784922
 C  -0.074328   7.258855   0.334956
 C   0.065965   5.765372   0.289273
 O   0.555645   5.177023   1.270709
 C  -0.386229   5.037660  -0.879085
 C  -0.303182   3.677377  -0.966171
 H  -0.845530   5.558616  -1.705316
 N   0.236480   2.865080  -0.019952
 H  -0.680234   3.164393  -1.845001
 H   0.460096   3.350203   0.854453






