%nproc=15
%mem=70GB
%chk=N-TrisPhenyl_Hydrazide_Hydrazone.chk
#P B3LYP/6-311++G(d,p) EmpiricalDispersion=GD3 opt SCF=YQC

Comment

0 1
 N    0.000000000000000    0.000000000000000    0.000000000000000
 C    1.486664194000000    0.115830323000000    -0.171934194000000
 C    -0.789065806000000    1.237760323000000    0.199745806000000
 C    -0.613895806000000    -1.236089677000000    -0.038794194000000
 C    -0.462675806000000    2.500160323000000    -0.322134194000000
 C    2.176224194000000    -0.918259677000000    -0.846584194000000
 C    -1.765025806000000    -1.441179677000000    -0.822204194000000
 C    -2.007925806000000    1.140170323000000    0.910585806000000
 C    -1.297715806000000    3.610210323000000    -0.126194194000000
 H    0.438864194000000    2.642570323000000    -0.911754194000000
 C    2.273194194000000    1.157440323000000    0.348705806000000
 C    3.570374194000000    -0.927389677000000    -0.965384194000000
 H    1.632104194000000    -1.749019677000000    -1.289124194000000
 C    -0.125815806000000    -2.315259677000000    0.720105806000000
 C    -2.414125806000000    -2.677449677000000    -0.833324194000000
 H    -2.163745806000000    -0.629609677000000    -1.426834194000000
 C    -2.865415806000000    2.233870323000000    1.065575806000000
 H    -2.315445806000000    0.194440323000000    1.350765806000000
 C    -2.504725806000000    3.472930323000000    0.555025806000000
 H    -1.010125806000000    4.580640323000000    -0.521804194000000
 C    3.666684194000001    1.177220323000000    0.186235806000000
 H    1.821684194000000    1.969990323000000    0.911145806000000
 C    4.315594194000000    0.127230323000000    -0.457594194000000
 H    4.064904194000000    -1.761929677000000    -1.456734194000000
 C    -0.759375806000000    -3.559559677000000    0.685245806000000
 H    0.753504194000000    -2.187099677000000    1.347095806000000
 C    -1.906875806000000    -3.737209677000000    -0.084874194000000
 H    -3.314085806000000    -2.810259677000000    -1.427784194000000
 H    -3.812175806000000    2.108150323000000    1.585245806000000
 H    4.245704194000000    2.009030323000000    0.578395806000000
 H    -0.358405806000000    -4.386819677000000    1.264815806000000
 C    -3.431875151999999    4.626420422000000    0.788640369000000
 O    -4.516020009000000    4.418170706000000    1.328763886000000
 N    -2.991582457000000    5.876353835000000    0.373023683000000
 H    -2.065095450000000    6.021765003000000    0.000349426000000
 N    -3.815754251000000    6.953961385000000    0.507744227000000
 C    -3.370518706000000    8.071645287000001    0.031882284000000
 C    -4.168464052000000    9.311067683999999    0.103844481000000
 H    -2.382596073000000    8.143817233000000    -0.457282394000000
 C    -3.671428767000000    10.474597011000000    -0.490329245000000
 C    -4.421672771000000    11.651006757999999    -0.437449034000000
 H    -2.711474550000000    10.478078847999999    -0.998619955000000
 C    -5.659485360000000    11.663237532000000    0.207816401000000
 H    -4.044369381000000    12.559481708000002    -0.900451507000000
 C    -6.152361421000000    10.500934667999999    0.801502435000000
 H    -6.243211281999999    12.579774552000000    0.247594200000000
 C    -5.408397090000000    9.322255856000000    0.749660803000000
 H    -7.116615865000001    10.509388180000000    1.303572920000000
 H    -5.798543187000000    8.417005615000001    1.211598038000000
 C    5.803974743000001    0.250193499000000    -0.577279113000000
 O    6.346832835000000    1.288259650000000    -0.205532979000000
 N    6.480614317000000    -0.840514416000000    -1.107791654000000
 H    6.010894020000000    -1.704622071000000    -1.333821487000000
 N    7.829085331999999    -0.764514456000000    -1.293524609000000
 C    8.382196556000000    -1.787618230000000    -1.860290191000000
 C    9.832848300000000    -1.827951699000000    -2.128703937000000
 H    7.793119608000000    -2.666897963000000    -2.177051144000000
 C    10.367697893999999    -2.925730272000000    -2.808928240000000
 C    11.737178242000001    -2.970681788000000    -3.077452382000000
 H    9.733790428000001    -3.744132957000000    -3.137960211000000
 C    12.565748704000001    -1.925372182000000    -2.665753589000000
 H    12.160829659999999    -3.818899487000000    -3.609525764000000
 C    12.029527946000000    -0.831735972000000    -1.985485255000000
 H    13.631952719999999    -1.961114772000000    -2.876205001000000
 C    10.661850086999999    -0.780278635000000    -1.716666288000000
 H    12.673978269999999    -0.016864143000000    -1.665172053000000
 H    10.247509304999999    0.076631877000000    -1.188363272000000
 C    -2.523938188000000    -5.102305360000000    -0.063220687000000
 O    -1.945664250000000    -6.007013946999999    0.534753439000000
 N    -3.732287264000000    -5.252706556000000    -0.731203033000000
 H    -4.215020665000000    -4.470958097000000    -1.148631464000000
 N    -4.312338118000000    -6.484885031000000    -0.793845000000000
 C    -5.396911238000000    -6.566338852000000    -1.494532523000000
 C    -6.117520843000000    -7.844658291000000    -1.651645280000000
 H    -5.822458075000001    -5.688494852000000    -2.012974229000000
 C    -7.243387827000000    -7.892760529000000    -2.478686205999999
 C    -7.927737479000000    -9.098677822000001    -2.643098224000000
 H    -7.592869178000000    -7.007048747000000    -3.001430020000000
 C    -7.489682101000000    -10.247672849000001    -1.982329739000000
 H    -8.802013090999999    -9.145861897000000    -3.287669160000000
 C    -6.366703454000000    -10.196406141000001    -1.156116360000000
 H    -8.022951037000000    -11.186401322000000    -2.111834299000000
 C    -5.677688106000000    -8.995097486000001    -0.990075436000000
 H    -6.024415860000000    -11.090940279000000    -0.641742231000000
 H    -4.800088908000000    -8.960702497000000    -0.346868924000000




