%nproc=15
%mem=70GB
%chk=N-TrisPhenyl_Hydrazide_Hydrazone_freq.chk
#P B3LYP/6-311++G(d,p) EmpiricalDispersion=GD3 freq(noraman) SCF=YQC

Restart from N-TrisPhenyl_Hydrazide_Hydrazone.log

0 1
 N  -0.000899  -0.000029  -0.297415
 C   0.365951  -1.368887  -0.281926
 C  -1.369669   0.366961  -0.282838
 C   1.001347   1.002052  -0.283354
 C  -2.285694  -0.334395   0.511775
 C   1.432363  -1.810644   0.511785
 C   0.851989   2.146286   0.510829
 C  -1.825174   1.445717  -1.055599
 C  -3.627956   0.023925   0.515850
 H  -1.939677  -1.152566   1.130975
 C  -0.341522  -2.303506  -1.052831
 C   1.793387  -3.152178   0.516542
 H   1.968558  -1.101213   1.129642
 C   2.163270   0.856819  -1.056109
 C   1.833447   3.129539   0.514547
 H  -0.029621   2.255920   1.129946
 C  -3.161428   1.812346  -1.027328
 H  -1.123182   1.992857  -1.672591
 C  -4.086976   1.098422  -0.256391
 H  -4.303651  -0.512668   1.172691
 C   0.009239  -3.644003  -1.023778
 H  -1.167213  -1.969733  -1.669003
 C   1.091405  -4.087715  -0.253937
 H   2.596878  -3.468371   1.172547
 C   3.148990   1.830667  -1.028148
 H   2.286071  -0.024963  -1.672732
 C   2.993555   2.989409  -0.257555
 H   1.706596   3.983236   1.171078
 H  -3.514823   2.652895  -1.611918
 H  -0.542698  -4.370937  -1.606956
 H   4.053645   1.716193  -1.612659
 C  -5.509889   1.569604  -0.273166
 O  -5.812769   2.722558  -0.502652
 N  -6.442809   0.572870  -0.019077
 H  -6.142060  -0.397748  -0.014371
 N  -7.766307   0.857713   0.052012
 C  -8.576191  -0.125607   0.175734
 C  -10.023368   0.069387   0.274625
 H  -8.215879  -1.163128   0.214138
 C  -10.856269  -1.049626   0.413234
 C  -12.237685  -0.898232   0.509227
 H  -10.419593  -2.042994   0.445636
 C  -12.802361   0.374555   0.467544
 H  -12.870466  -1.771944   0.615940
 C  -11.978466   1.495860   0.329355
 H  -13.877133   0.495562   0.541719
 C  -10.601356   1.349706   0.233654
 H  -12.416245   2.487215   0.296116
 H  -9.956460   2.213143   0.125473
 C   1.395029  -5.555563  -0.269965
 O   0.547813  -6.394599  -0.497846
 N   2.725091  -5.864752  -0.017544
 H   3.415188  -5.118881  -0.014318
 N   3.140500  -7.153259   0.053430
 C   4.397218  -7.362679   0.175669
 C   4.952382  -8.713315   0.274086
 H   5.115451  -6.531715   0.212989
 C   6.338100  -8.874728   0.411413
 C   6.898149  -10.146598   0.506957
 H   6.979827  -7.999690   0.443199
 C   6.078502  -11.272248   0.466074
 H   7.971325  -10.257437   0.612685
 C   4.695305  -11.119781   0.329154
 H   6.511440  -12.263407   0.539878
 C   4.132870  -9.854258   0.233924
 H   4.055876  -11.994771   0.296534
 H   3.062526  -9.727786   0.126748
 C   4.113319   3.985845  -0.274402
 O   5.263099   3.671324  -0.504129
 N   3.717030   5.292258  -0.020253
 H   2.726165   5.517483  -0.015390
 N   4.625881   6.295613   0.051222
 C   4.179787   7.488820   0.175292
 C   5.072822   8.644110   0.274873
 H   3.101208   7.696069   0.213554
 C   4.520840   9.925124   0.414337
 C   5.343241   11.045264   0.511230
 H   3.442281   10.044188   0.446713
 C   6.727768   10.897186   0.469606
 H   4.903487   12.030281   0.618607
 C   7.286241   9.622825   0.330531
 H   7.370403   11.767066   0.544493
 C   6.470533   8.503792   0.233917
 H   8.363611   9.505732   0.297323
 H   6.895324   7.513426   0.125088






