%nproc=15
%mem=70GB
%chk=TPG_Aldehyde_Azine_freq.chk
#P B3LYP/6-311++G(d,p) EmpiricalDispersion=GD3 freq(noraman) SCF=YQC

Restart from TPG_Aldehyde_Azine.log

0 1
 C   1.184771  -0.797107   0.000001
 C   1.262690   0.618936   0.000003
 O   2.442491   1.233167  -0.000000
 C   0.097944   1.424340   0.000012
 C  -1.167339   0.783790   0.000013
 O  -2.289161   1.498435   0.000014
 C  -1.282471  -0.627610   0.000007
 C  -0.095103  -1.403108   0.000002
 O  -0.153070  -2.731967  -0.000002
 H  -2.037853   2.472942  -0.000003
 H  -1.122624  -3.001715  -0.000004
 H   3.160861   0.528351  -0.000003
 C   2.367268  -1.619849   0.000007
 N   3.552170  -1.091752  -0.000001
 H   2.253469  -2.702085   0.000008
 N   4.582744  -2.010965   0.000002
 C   5.750742  -1.477501  -0.000008
 C   6.975125  -2.274903  -0.000004
 H   5.858213  -0.388292  -0.000018
 C   8.214183  -1.617222  -0.000009
 C   9.402704  -2.342680  -0.000008
 H   8.243240  -0.532323  -0.000014
 C   9.366624  -3.735626  -0.000002
 H   10.353679  -1.822407  -0.000012
 C   8.136448  -4.400415   0.000003
 H   10.290366  -4.303186  -0.000000
 C   6.949708  -3.680530   0.000002
 H   8.108223  -5.484269   0.000008
 H   5.992527  -4.186818   0.000005
 C   0.219199   2.859791   0.000022
 N  -0.830611   3.621888   0.000013
 H   1.213337   3.302373   0.000001
 N  -0.549841   4.974000  -0.000005
 C  -1.595815   5.718811  -0.000014
 C  -1.517355   7.177855  -0.000008
 H  -2.592854   5.267323  -0.000004
 C  -2.706400   7.922162  -0.000011
 C  -2.672304   9.314173  -0.000009
 H  -3.660521   7.404960  -0.000015
 C  -1.447889   9.979314  -0.000003
 H  -3.598324   9.877667  -0.000012
 C  -0.257128   9.246256   0.000001
 H  -1.418163   11.063075  -0.000001
 C  -0.287290   7.858573  -0.000002
 H   0.695667   9.763668   0.000006
 H   0.629718   7.282712   0.000001
 C  -2.586245  -1.240283   0.000005
 N  -2.721423  -2.530482   0.000007
 H  -3.466555  -0.600563   0.000004
 N  -4.032826  -2.963219   0.000004
 C  -4.155033  -4.241450   0.000004
 C  -5.457918  -4.902851  -0.000000
 H  -3.265601  -4.879290   0.000003
 C  -5.508159  -6.304733  -0.000009
 C  -6.730815  -6.971050  -0.000014
 H  -4.583255  -6.872536  -0.000012
 C  -7.918956  -6.243083  -0.000010
 H  -6.755948  -8.054751  -0.000022
 C  -7.879312  -4.845333  -0.000001
 H  -8.872453  -6.759090  -0.000014
 C  -6.662371  -4.177775   0.000004
 H  -8.803729  -4.278775   0.000003
 H  -6.622004  -3.095697   0.000011






