%nproc=15
%mem=70GB
%chk=T-brick_PrimaryAmine_Imide.chk
#P B3LYP/6-311++G(d,p) EmpiricalDispersion=GD3 opt SCF=YQC NoSymm

Comment

0 1
 N    1.048041667000000    -2.362353333000000    -0.827760000000000
 C    0.687191667000000    -1.111843333000000    -0.380820000000000
 C    -0.707988333000000    -1.156633333000000    -0.350020000000000
 N    -1.140578333000000    -2.423203333000000    -0.704650000000000
 C    -1.452748333000000    -0.004173333000000    0.016440000000000
 C    -2.937038333000000    0.018916667000000    0.013290000000000
 C    -0.690808333000000    1.125556667000000    0.389200000000000
 H    -1.190148333000000    2.031256667000000    0.727650000000000
 C    0.707131667000000    1.132496667000000    0.363290000000000
 H    1.218751667000000    2.041706667000000    0.676780000000000
 C    1.457221667000000    0.014596667000000    -0.038090000000000
 C    2.930271667000000    0.035566667000000    -0.088570000000000
 C    -3.644438333000000    1.216186667000000    -0.227900000000000
 C    3.614231667000000    1.150886667000000    -0.607650000000000
 C    3.709801667000000    -1.028743333000000    0.397570000000000
 C    -3.714278333000000    -1.126953333000000    0.257540000000000
 C    -5.114658333000000    -1.083173333000000    0.260860000000000
 H    -3.237768333000000    -2.085023333000000    0.454110000000000
 C    5.107441667000000    -0.993503333000000    0.339110000000000
 H    3.237601667000000    -1.893393333000000    0.858000000000000
 C    -5.778958333000000    0.116916667000000    0.034260000000000
 H    -5.680408333000000    -1.992973333000000    0.442850000000000
 C    -5.043148333000000    1.269606667000000    -0.208850000000000
 H    -3.111798333000000    2.138136667000000    -0.449260000000000
 C    5.011001667000000    1.198966667000000    -0.646670000000000
 H    3.058831667000001    2.004406667000000    -0.992550000000000
 C    5.757241667000000    0.121996667000000    -0.180560000000000
 H    5.688571667000000    -1.831683333000000    0.715280000000000
 H    5.511931667000000    2.079726667000000    -1.040580000000000
 H    -5.551588333000000    2.212836667000000    -0.390060000000000
 C    -0.066158333000000    -3.157953333000000    -0.916690000000000
 H    1.993111667000000    -2.657013333000000    -1.011250000000000
 C    -0.040848333000000    -4.599613333000000    -1.196060000000000
 C    -1.251718333000000    -5.281883333000000    -1.390290000000000
 C    -1.273518333000000    -6.658563333000001    -1.631550000000000
 H    -2.193238333000000    -4.735723333000000    -1.348080000000000
 C    1.151281667000000    -5.339883333000000    -1.242140000000000
 C    -0.081488333000000    -7.375973333000000    -1.679350000000000
 H    -2.223038333000000    -7.167013333000000    -1.777580000000000
 C    1.130121667000000    -6.718103333000000    -1.483600000000000
 H    2.116521667000000    -4.871123333000000    -1.078620000000000
 H    2.060961667000000    -7.279213333000000    -1.512890000000000
 C    -9.382644873000000    0.802391916000000    -0.256004692000000
 C    -10.544951873000000    1.478659474000000    -0.578699882000000
 H    -10.512605118000000    2.452935158000000    -1.056373050000000
 C    -11.757841091000000    0.856881030000000    -0.266696846000000
 H    -12.696568063999999    1.354471937000000    -0.504314026000000
 C    -11.779601597999999    -0.408785589000000    0.352378504000000
 H    -12.734895865000000    -0.875201402000000    0.587170806000000
 C    -10.588771224000000    -1.070644960000000    0.666870738000000
 H    -10.589930960000000    -2.045948695000000    1.143554831000000
 C    -9.403893728000000    -0.433839544000000    0.345983216000000
 C    -8.021611871999999    -0.857494684000000    0.540252984000000
 C    -7.986624717000000    1.177231968000000    -0.452431398000000
 N    -7.210346476000000    0.144961723000000    0.041308011000000
 O    -7.702522216000000    2.236718274000000    -0.982932803000000
 O    -7.773999473000000    -1.925014631000000    1.072857944000000
 C    9.382644873000000    -0.802391916000000    0.256004692000000
 C    10.544951873000000    -1.478659474000000    0.578699882000000
 H    10.512605118000000    -2.452935158000000    1.056373050000000
 C    11.757841091000000    -0.856881030000000    0.266696846000000
 H    12.696568063999999    -1.354471937000000    0.504314026000000
 C    11.779601597999999    0.408785589000000    -0.352378504000000
 H    12.734895865000000    0.875201402000000    -0.587170806000000
 C    10.588771224000000    1.070644960000000    -0.666870738000000
 H    10.589930960000000    2.045948695000000    -1.143554831000000
 C    9.403893728000000    0.433839544000000    -0.345983216000000
 C    8.021611871999999    0.857494684000000    -0.540252984000000
 C    7.986624717000000    -1.177231968000000    0.452431398000000
 N    7.210346476000000    -0.144961723000000    -0.041308011000000
 O    7.702522216000000    -2.236718274000000    0.982932803000000
 O    7.773999473000000    1.925014631000000    -1.072857944000000
 C    -0.773573775000000    -10.846333531999999    -2.688460706000000
 C    -1.481827206000000    -11.933520863000000    -3.166820760000000
 H    -2.518322247000000    -11.836169925000000    -3.474443746000000
 C    -0.809340782000000    -13.157305655000000    -3.238705226000000
 H    -1.329801254000000    -14.038462878000001    -3.610121176000000
 C    0.536760426000000    -13.263727887000000    -2.835808656000000
 H    1.041706781000000    -14.226136638000000    -2.899502039000000
 C    1.229277185000000    -12.147555361000000    -2.356622258000000
 H    2.266376609000000    -12.214292857000000    -2.042906880000000
 C    0.540806981000000    -10.949665435000000    -2.297519629000000
 C    0.977854258000000    -9.630328545999999    -1.854498857000000
 C    -1.185786897000000    -9.459817292000000    -2.499744389000000
 N    -0.096228561000000    -8.771507795000000    -1.998684474000000
 O    -2.316704048000000    -9.109245177000000    -2.787464383000000
 O    2.112619103000000    -9.463678656000001    -1.443262501000000




