%nproc=15
%mem=70GB
%chk=TrisPhenyl_AmineBorane_Borazine_freq.chk
#P B3LYP/6-311++G(d,p) EmpiricalDispersion=GD3 freq(noraman) SCF=YQC

Restart from TrisPhenyl_AmineBorane_Borazine.log

0 1
 C   5.493725   1.597773  -0.000065
 C   4.555426   2.270907   0.786499
 C   3.221343   1.878545   0.788244
 C   2.777904   0.808010  -0.000174
 C   3.726330   0.142238  -0.788551
 C   5.062771   0.526475  -0.786713
 C   1.352735   0.393492  -0.000179
 C   1.003609  -0.961801  -0.000076
 C  -0.335612  -1.368238   0.000023
 C  -1.334772  -0.388239   0.000072
 C  -1.017137   0.974765  -0.000130
 C   0.331136   1.350073  -0.000271
 C  -2.088724   2.001717  -0.000147
 C  -1.986869   3.155395  -0.789413
 C  -2.987899   4.120616  -0.787642
 C  -4.130611   3.958726  -0.000106
 C  -4.243883   2.810147   0.787385
 C  -3.237044   1.850977   0.789106
 C  -0.689210  -2.809720   0.000075
 C  -1.739909  -3.298198  -0.788428
 C  -2.075339  -4.647712  -0.786645
 C  -1.363117  -5.556566   0.000085
 C  -0.311125  -5.080534   0.786802
 C   0.016125  -3.729004   0.788559
 H   1.785949  -1.711577  -0.000062
 H   0.589232   2.402496  -0.000400
 H  -2.375272  -0.690866   0.000279
 H  -1.119666   3.293614  -1.425151
 H  -3.338269   0.978680   1.424838
 H  -2.886247   5.008197  -1.400839
 H  -5.126298   2.670957   1.400665
 H   5.780758  -0.005945  -1.399222
 H   3.412590  -0.678416  -1.423684
 H   4.875885   3.105320   1.399035
 H   2.516425   2.402959   1.423365
 H   0.822686  -3.380720   1.423746
 H   0.251171  -5.775262   1.399430
 H  -2.895325  -5.003326  -1.399266
 H  -2.293699  -2.616164  -1.423609
 N   6.868615   1.997599  -0.000016
 B   7.571243   2.151731   1.250007
 B   7.544423   2.244234  -1.249998
 H   7.023359   1.935753   2.283269
 N   8.940856   2.555556   1.213569
 H   6.966151   2.132931  -2.283277
 N   8.917099   2.637510  -1.213489
 B   9.653183   2.807034   0.000061
 H   9.428941   2.652824   2.091139
 H   9.381336   2.816987  -2.091036
 H   10.797103   3.139492   0.000090
 N  -5.164237   4.949590   0.000008
 B  -5.647720   5.482272   1.249992
 B  -5.716940   5.410363  -1.249874
 H  -5.185832   5.116618   2.283147
 N  -6.682425   6.466297   1.213648
 H  -5.332253   4.964403  -2.283115
 N  -6.743813   6.402553  -1.213303
 B  -7.257585   6.956286   0.000238
 H  -7.009927   6.841112   2.091186
 H  -7.132187   6.714073  -2.090763
 H  -8.117438   7.780747   0.000332
 N  -1.704311  -6.947170   0.000108
 B  -1.922400  -7.632679   1.250109
 B  -1.828477  -7.655766  -1.249883
 H  -1.835314  -7.050261   2.283383
 N  -2.257338  -9.020745   1.213656
 H  -1.635806  -7.099280  -2.283157
 N  -2.174390  -9.041138  -1.213401
 B  -2.395696  -9.763367   0.000138
 H  -2.417082  -9.492105   2.091221
 H  -2.251015  -9.532924  -2.090950
 H  -2.679625  -10.920287   0.000151






