%nproc=15
%mem=70GB
%chk=T-brick_Ketoenamine_Ketoenamine_freq.chk
#P B3LYP/6-311++G(d,p) EmpiricalDispersion=GD3 freq(noraman) SCF=YQC NoSymm

Restart from T-brick_Ketoenamine_Ketoenamine.log

0 1
 N   1.099668  -2.500093  -0.513026
 C   0.708628  -1.211215  -0.208828
 C  -0.705706  -1.248586  -0.234068
 N  -1.134396  -2.523471  -0.548476
 C  -1.456297  -0.074054  -0.005688
 C  -2.933769  -0.056089  -0.018061
 C  -0.711604   1.087750   0.228763
 H  -1.236853   2.010237   0.445002
 C   0.689014   1.104043   0.239471
 H   1.200403   2.034520   0.458055
 C   1.452568  -0.047609   0.025976
 C   2.929717  -0.042538   0.037535
 C  -3.633110   1.055567  -0.519120
 C   3.651098   0.972852  -0.606542
 C   3.654854  -1.055005   0.690058
 C  -3.681592  -1.133825   0.480839
 C  -5.070160  -1.096216   0.483749
 H  -3.168160  -2.003288   0.867366
 C   5.042315  -1.055609   0.687250
 H   3.121667  -1.825068   1.237163
 C  -5.764305   0.015755  -0.012580
 H  -5.607769  -1.939256   0.899276
 C  -5.019020   1.093620  -0.509949
 H  -3.082334   1.887902  -0.941894
 C   5.041092   0.979157  -0.596685
 H   3.113871   1.748847  -1.139496
 C   5.760426  -0.036429   0.047104
 H   5.597654  -1.837432   1.190525
 H   5.560862   1.767600  -1.126649
 H  -5.551960   1.953332  -0.896518
 C  -0.046189  -3.244369  -0.715827
 H   2.047131  -2.793385  -0.687529
 C  -0.026707  -4.663611  -1.069028
 C  -1.216804  -5.283718  -1.483320
 C  -1.226177  -6.625803  -1.825023
 H  -2.121702  -4.691330  -1.531080
 C   1.144605  -5.431009  -1.002502
 C  -0.051432  -7.392091  -1.780525
 H  -2.142807  -7.109976  -2.137483
 C   1.132517  -6.774186  -1.358804
 H   2.073333  -4.995893  -0.650089
 H   2.050585  -7.341888  -1.276976
 C  -7.258125   0.121145  -0.029150
 O  -7.782964   1.232667  -0.235700
 C  -8.062168  -1.066374   0.174935
 C  -9.431289  -1.037486   0.191081
 H  -7.589977  -2.030140   0.289303
 N  -10.178653   0.075333   0.026869
 H  -9.975601  -1.964300   0.330741
 C  -11.575336   0.182566   0.060610
 H  -9.618328   0.912701  -0.152128
 C  -12.412531  -0.849567   0.506397
 C  -12.149848   1.390536  -0.362846
 C  -13.793691  -0.673911   0.507487
 H  -11.998391  -1.781979   0.868214
 C  -14.363385   0.524588   0.081329
 H  -14.427618  -1.481750   0.855638
 C  -13.529432   1.556755  -0.349172
 H  -11.505953   2.192801  -0.707135
 H  -15.438915   0.654300   0.089519
 H  -13.954207   2.497443  -0.680878
 C   7.258010  -0.104984   0.070428
 O   7.803636  -1.181503   0.381357
 C   8.030943   1.074996  -0.246499
 C   9.401843   1.075838  -0.265861
 H   7.535559   2.013438  -0.444424
 N   10.174573   0.002486  -0.002563
 H   9.924713   1.998007  -0.492125
 C   11.575270  -0.072519  -0.037226
 H   9.638140  -0.827441   0.262010
 C   12.377284   0.910684  -0.631735
 C   12.185815  -1.195192   0.540246
 C   13.762918   0.775024  -0.624654
 H   11.932138   1.770204  -1.116625
 C   14.369442  -0.337890  -0.044857
 H   14.370803   1.543498  -1.088750
 C   13.569631  -1.324234   0.532372
 H   11.567904  -1.959052   1.000051
 H   15.448114  -0.438098  -0.048050
 H   14.024315  -2.198362   0.984404
 C  -0.135782  -8.840735  -2.161613
 O  -1.257454  -9.378885  -2.223495
 C   1.074838  -9.570047  -2.466681
 C   1.069775  -10.899703  -2.801694
 H   2.028843  -9.065029  -2.474026
 N  -0.035674  -11.667781  -2.879593
 H   2.008771  -11.386301  -3.039340
 C  -0.108198  -13.035360  -3.184866
 H  -0.900818  -11.151030  -2.702561
 C   1.012146  -13.876878  -3.188814
 C  -1.368285  -13.573665  -3.483321
 C   0.867759  -15.224617  -3.506914
 H   1.991658  -13.496840  -2.927784
 C  -0.383933  -15.757697  -3.809725
 H   1.743382  -15.863960  -3.505428
 C  -1.501147  -14.922687  -3.789997
 H  -2.238051  -12.925456  -3.479344
 H  -0.488246  -16.808574  -4.051339
 H  -2.482922  -15.321215  -4.018998






