%nproc=15
%mem=70GB
%chk=TetraPhenylMethane_PrimaryAmine_Imine.chk
#P B3LYP/6-311++G(d,p) EmpiricalDispersion=GD3 opt SCF=YQC

Comment

0 1
 C    -0.000000000000000    0.000000000000000    -0.000000000000000
 C    -0.334711000000000    -3.282421000000000    -2.523411000000000
 C    -3.282421000000000    0.334711000000000    2.523412000000000
 C    0.334711000000000    3.282422000000000    -2.523411000000000
 C    3.282421000000000    -0.334711000000000    2.523412000000000
 C    -1.442915000000000    -2.894269000000000    -1.866366000000000
 C    -2.894268000000000    1.442915000000000    1.866365000000000
 C    1.442915000000000    2.894269000000000    -1.866366000000000
 C    2.894269000000000    -1.442914000000000    1.866365000000000
 C    -1.355721000000000    -1.850757000000000    -1.055712000000000
 C    -1.850756000000000    1.355721000000000    1.055713000000000
 C    1.355722000000000    1.850757000000000    -1.055712000000000
 C    1.850757000000000    -1.355721000000000    1.055713000000000
 C    -0.132197000000000    -1.201023000000000    -0.847056000000000
 C    -1.201023000000000    0.132197000000000    0.847056000000000
 C    0.132198000000000    1.201023000000000    -0.847056000000000
 C    1.201024000000000    -0.132198000000000    0.847056000000000
 C    0.964755000000000    -1.566674000000000    -1.552049000000000
 C    -1.566674000000000    -0.964756000000000    1.552050000000000
 C    -0.964756000000000    1.566674000000000    -1.552049000000000
 C    1.566675000000000    0.964754000000000    1.552050000000000
 C    0.874751000000000    -2.604561000000000    -2.363589000000000
 C    -2.604559000000000    -0.874752000000000    2.363589000000000
 C    -0.874750000000000    2.604559000000000    -2.363589000000000
 C    2.604560000000000    0.874750000000000    2.363589000000000
 H    -2.387983000000000    -3.392116000000000    -1.994223000000000
 H    -3.392115000000000    2.387984000000000    1.994223000000000
 H    2.387983000000000    3.392116000000000    -1.994223000000000
 H    3.392116000000000    -2.387983000000000    1.994223000000000
 H    -2.258597000000000    -1.552610000000000    -0.616202000000000
 H    -1.552610000000000    2.258597000000000    0.616202000000000
 H    2.258598000000000    1.552609000000000    -0.616202000000000
 H    1.552610000000000    -2.258598000000000    0.616202000000000
 H    1.907010000000000    -1.051950000000000    -1.461484000000000
 H    -1.051950000000000    -1.907011000000000    1.461484000000000
 H    -1.907010000000000    1.051952000000000    -1.461484000000000
 H    1.051951000000000    1.907009000000000    1.461484000000000
 H    1.760751000000000    -2.888643000000000    -2.847495000000000
 H    -2.888643000000000    -1.760751000000000    2.847496000000000
 H    -1.760749000000000    2.888644000000000    -2.847495000000000
 H    2.888643000000000    1.760751000000000    2.847496000000000
 N    -0.417131699000000    -4.351219845000000    -3.424899152000000
 C    -0.993679796000000    -5.438452453000000    -3.084381205000000
 C    -1.173305092000000    -6.567771172000000    -4.003312682000000
 C    -1.793615434000000    -7.735674996000000    -3.539169601000000
 C    -1.980820413000000    -8.823654834999999    -4.388362725000000
 C    -1.548380372000000    -8.753405330000000    -5.711198511000000
 C    -0.927901777000000    -7.592171760000000    -6.182459394000000
 C    -0.740992149000000    -6.506299258000000    -5.337991676000000
 H    -1.375486650000000    -5.588821823000000    -2.064752856000000
 H    -2.129593248000000    -7.789599280000000    -2.508372273000000
 H    -2.461825311000000    -9.722333983000000    -4.019566625000000
 H    -1.692551059000000    -9.598621444000001    -6.374809249000000
 H    -0.591936251000000    -7.539003649000000    -7.211927128000000
 H    -0.262382483000000    -5.600164547000000    -5.688653310000000
 N    -4.416898709000000    0.391155289000000    3.342911482000000
 C    -4.557978980000000    1.341913617000000    4.183500491000000
 C    -5.752755710000000    1.495649853000000    5.020718988000000
 C    -5.814133054000000    2.553599580000001    5.937882148000000
 C    -6.936098678000000    2.727362991000000    6.744649902000000
 C    -8.008164362000000    1.843128930000000    6.641503441000000
 C    -7.955040140000000    0.784384915000000    5.729482149000000
 C    -6.838061185000000    0.609778058000000    4.923845454000000
 H    -3.771103036000000    2.094407859000000    4.333860241000000
 H    -4.978239558000000    3.241506840000000    6.017867875000000
 H    -6.973690610000000    3.548934233000000    7.450771724000000
 H    -8.883001903000000    1.975584172000000    7.268136959000000
 H    -8.789913524999999    0.097192477000000    5.650384211000000
 H    -6.782526635000000    -0.205250246000000    4.212680434000000
 N    0.417131712000000    4.351221012000000    -3.424898953000000
 C    0.993678319000000    5.438454162000000    -3.084380215000000
 C    1.173303588000000    6.567773147000000    -4.003311370000000
 C    1.793612213000000    7.735677545000000    -3.539167438000000
 C    1.980817122000000    8.823657649999999    -4.388360235000000
 C    1.548378732000000    8.753407838999999    -5.711196545000000
 C    0.927901857000000    7.592173696000000    -6.182458279000000
 C    0.740992302000000    6.506300927999999    -5.337990887000001
 H    1.375483805000000    5.588823816000000    -2.064751395000000
 H    2.129588741000001    7.789602067000000    -2.508369704000000
 H    2.461820684000000    9.722337243000000    -4.019563476000000
 H    1.692549370000000    9.598624160000000    -6.374807031000000
 H    0.591937614000000    7.539005348000000    -7.211926420000000
 H    0.262383957000000    5.600165774000000    -5.688653178000000
 N    4.416898315000000    -0.391155290000000    3.342912027000000
 C    4.557977427000000    -1.341912753000000    4.183502208000000
 C    5.752753673000000    -1.495649021000000    5.020721389000000
 C    5.814129735000000    -2.553597726000000    5.937885813000000
 C    6.936094871000001    -2.727361144000000    6.744654244000000
 C    8.008161348000000    -1.843128110000000    6.641507200999999
 C    7.955038407000000    -0.784385118000000    5.729484647000000
 C    6.838059940000000    -0.609778258000000    4.923847276000000
 H    3.771100783000000    -2.094406154000000    4.333862506000000
 H    4.978235623000000    -3.241504186000000    6.017871993000000
 H    6.973685811000000    -3.548931591000000    7.450777043000000
 H    8.882998513000000    -1.975583360000000    7.268141242000000
 H    8.789912405999999    -0.097193479000000    5.650386257000000
 H    6.782526379000000    0.205249260000000    4.212681279000000




