%nproc=15
%mem=70GB
%chk=TetraPhenylMethane_PrimaryAmine_Imine_freq.chk
#P B3LYP/6-311++G(d,p) EmpiricalDispersion=GD3 freq(noraman) SCF=YQC

Restart from TetraPhenylMethane_PrimaryAmine_Imine.log

0 1
 C   0.223468   0.000000  -0.000000
 C   3.015129   3.253304   0.923735
 C  -2.586331  -0.918481   3.239530
 C   3.015132  -3.253300  -0.923736
 C  -2.586333   0.918478  -3.239529
 C   2.079369   2.842542   1.879562
 C  -1.635118  -1.867555   2.850419
 C   2.079373  -2.842539  -1.879562
 C  -1.635121   1.867553  -2.850419
 C   1.174347   1.818698   1.597106
 C  -0.721219  -1.586301   1.833689
 C   1.174349  -1.818696  -1.597107
 C  -0.721221   1.586301  -1.833690
 C   1.167289   1.176766   0.358500
 C  -0.724642  -0.357436   1.174144
 C   1.167290  -1.176765  -0.358500
 C  -0.724643   0.357435  -1.174144
 C   2.139897   1.568033  -0.578246
 C  -1.690034   0.585649   1.568051
 C   2.139899  -1.568031   0.578246
 C  -1.690034  -0.585651  -1.568050
 C   3.049562   2.575870  -0.305305
 C  -2.584013   0.327785   2.593675
 C   3.049564  -2.575867   0.305304
 C  -2.584014  -0.327788  -2.593674
 H   2.082223   3.295054   2.864851
 H  -1.585839  -2.821664   3.363104
 H   2.082226  -3.295051  -2.864852
 H  -1.585843   2.821662  -3.363104
 H   0.483894   1.514619   2.371716
 H  -0.004058  -2.348423   1.561964
 H   0.483895  -1.514618  -2.371717
 H  -0.004061   2.348423  -1.561965
 H   2.194013   1.054090  -1.530842
 H  -1.735191   1.540398   1.057258
 H   2.194014  -1.054088   1.530841
 H  -1.735190  -1.540400  -1.057258
 H   3.799859   2.857717  -1.034640
 H  -3.309557   1.073444   2.897161
 H   3.799861  -2.857714   1.034639
 H  -3.309557  -1.073448  -2.897160
 N   3.965218   4.261036   1.153576
 C   3.636356   5.322353   1.781846
 C   4.595727   6.383528   2.110845
 C   4.146633   7.530138   2.779869
 C   5.033291   8.553583   3.106566
 C   6.379811   8.439946   2.766420
 C   6.836634   7.299391   2.098641
 C   5.954642   6.277785   1.773098
 H   2.599699   5.503677   2.099716
 H   3.097512   7.618171   3.044566
 H   4.674979   9.435959   3.624456
 H   7.072708   9.234636   3.019352
 H   7.884626   7.211488   1.834718
 H   6.293975   5.388083   1.256943
 N  -3.512234  -1.130815   4.273927
 C  -4.102800  -2.256743   4.385330
 C  -5.031214  -2.565734   5.479638
 C  -5.659421  -3.818009   5.511974
 C  -6.544604  -4.140991   6.537869
 C  -6.810680  -3.212877   7.542592
 C  -6.188402  -1.960825   7.518137
 C  -5.305074  -1.637451   6.497007
 H  -3.954207  -3.058204   3.647766
 H  -5.452138  -4.540495   4.728719
 H  -7.024874  -5.112722   6.553030
 H  -7.499094  -3.461099   8.342640
 H  -6.395718  -1.239352   8.300552
 H  -4.815004  -0.672078   6.465126
 N   3.965223  -4.261032  -1.153577
 C   3.636362  -5.322349  -1.781847
 C   4.595734  -6.383523  -2.110846
 C   4.146641  -7.530133  -2.779870
 C   5.033300  -8.553577  -3.106567
 C   6.379820  -8.439939  -2.766422
 C   6.836642  -7.299383  -2.098642
 C   5.954649  -6.277778  -1.773099
 H   2.599705  -5.503674  -2.099717
 H   3.097520  -7.618167  -3.044567
 H   4.674989  -9.435954  -3.624458
 H   7.072718  -9.234628  -3.019353
 H   7.884634  -7.211479  -1.834719
 H   6.293980  -5.388076  -1.256944
 N  -3.512237   1.130811  -4.273926
 C  -4.102804   2.256738  -4.385329
 C  -5.031219   2.565728  -5.479637
 C  -5.659426   3.818002  -5.511973
 C  -6.544611   4.140984  -6.537868
 C  -6.810686   3.212870  -7.542590
 C  -6.188407   1.960818  -7.518135
 C  -5.305078   1.637445  -6.497005
 H  -3.954211   3.058200  -3.647765
 H  -5.452144   4.540489  -4.728718
 H  -7.024882   5.112714  -6.553029
 H  -7.499101   3.461091  -8.342638
 H  -6.395723   1.239345  -8.300550
 H  -4.815008   0.672072  -6.465124






