%nproc=15
%mem=70GB
%chk=Triazine-TrisPhenyl_Aldehyde_Benzobisoxazole_freq.chk
#P B3LYP/6-311++G(d,p) EmpiricalDispersion=GD3 freq(noraman) SCF=YQC

Restart from Triazine-TrisPhenyl_Aldehyde_Benzobisoxazole.log

0 1
 C   2.636150  -4.937647  -0.000108
 C   3.372096  -3.742483  -0.000198
 C   2.717288  -2.521746  -0.000179
 C   1.314888  -2.463232  -0.000072
 C   0.583715  -3.659037  -0.000010
 C   1.234846  -4.884162  -0.000030
 C   0.617225  -1.156341  -0.000046
 N  -0.722263  -1.159645   0.000009
 C  -1.310385   0.043471   0.000070
 N  -0.643489   1.205175   0.000061
 C   0.692485   1.112942   0.000060
 N   1.365099  -0.045446   0.000005
 C  -2.791005   0.092718   0.000067
 C  -3.460947   1.323850   0.000067
 C  -4.847485   1.372604   0.000042
 C  -5.594562   0.185815   0.000043
 C  -4.927549  -1.049135   0.000056
 C  -3.542958  -1.092505   0.000060
 C   1.475499   2.370561   0.000060
 C   0.825142   3.614426   0.000069
 C   1.555137   4.791763   0.000073
 C   2.958131   4.751826   0.000054
 C   3.612287   3.511405   0.000039
 C   2.876659   2.335075   0.000054
 H   3.280946  -1.598619  -0.000243
 H   4.453607  -3.790999  -0.000294
 H   0.663615  -5.803470  -0.000016
 H  -0.496966  -3.614114   0.000050
 H  -2.881601   2.237214   0.000082
 H  -5.357939   2.327001   0.000037
 H  -5.510331  -1.961489   0.000087
 H  -3.025409  -2.042261   0.000055
 H  -0.256143   3.641246   0.000068
 H   1.056503   5.752694   0.000119
 H   4.694044   3.476144   0.000037
 H   3.377888   1.376614   0.000069
 H   4.313945  -11.620483   0.000014
 C   4.422011  -10.542260   0.000028
 C   5.711641  -9.981351   0.000164
 H   6.570858  -10.641810   0.000250
 C   5.909028  -8.603402   0.000188
 H   6.899790  -8.166630   0.000289
 C   4.771282  -7.794275   0.000070
 N   4.624141  -6.411876   0.000054
 C   3.498262  -8.378778  -0.000062
 O   2.579142  -7.362449  -0.000157
 C   3.276727  -9.744830  -0.000090
 H   2.279298  -10.164878  -0.000197
 C   3.342237  -6.211762  -0.000056
 H  -12.220733   2.075076  -0.000895
 C  -11.341094   1.442244  -0.000546
 C  -11.500351   0.044952   0.000290
 H  -12.501987  -0.368792   0.000566
 C  -10.405809  -0.815106   0.000767
 H  -10.523090  -1.891502   0.001410
 C  -9.136130  -0.234550   0.000380
 N  -7.865423  -0.798470   0.000673
 C  -9.005626   1.160145  -0.000444
 O  -7.665878   1.447792  -0.000646
 C  -10.077763   2.035173  -0.000933
 H  -9.942653   3.108975  -0.001573
 C  -7.051028   0.211517   0.000060
 H   7.907903   9.545069  -0.000743
 C   6.919983   9.099812  -0.000420
 C   5.789611   9.936493   0.000405
 H   5.932245   11.010790   0.000701
 C   4.497445   9.418802   0.000845
 H   3.623987   10.058686   0.001480
 C   4.365195   8.028958   0.000435
 N   3.241375   7.210589   0.000700
 C   5.507698   7.218467  -0.000373
 O   5.086773   5.914442  -0.000597
 C   6.801625   7.709278  -0.000829
 H   7.663927   7.055259  -0.001460
 C   3.708722   6.000255   0.000083






