%nproc=15
%mem=70GB
%chk=P_Aldehyde_Hydrazone.chk
#P B3LYP/6-311++G(d,p) EmpiricalDispersion=GD3 opt SCF=YQC

Comment

0 1
 C    3.834450000000000    2.028850000000000    0.170710000000000
 C    4.206330000000000    0.766460000000000    -0.028510000000000
 C    3.061750000000000    -0.118750000000000    -0.027720000000000
 C    2.370940000000000    1.922770000000000    0.075610000000000
 N    1.928970000000000    0.690610000000000    -0.011520000000000
 C    1.610010000000000    3.228620000000000    0.050410000000000
 C    0.261520000000000    3.197680000000000    0.091160000000000
 N    -0.610890000000000    2.132640000000000    0.135180000000000
 C    -1.936010000000000    2.503710000000000    0.103780000000000
 C    -0.610970000000000    4.367110000000000    0.089560000000000
 C    -1.888450000000000    3.964100000000000    0.143740000000000
 C    -3.061790000000000    1.761380000000000    0.025080000000000
 C    -2.951580000000000    0.254180000000000    -0.012510000000000
 N    -1.879610000000000    -0.503420000000000    -0.000070000000000
 C    -3.782560000000000    -1.754340000000000    0.057960000000000
 C    -4.212200000000000    -0.502070000000000    -0.047320000000000
 C    -0.176010000000000    -3.028340000000000    -0.060020000000000
 N    0.671370000000000    -1.928970000000000    -0.029400000000000
 C    1.995920000000000    -2.349370000000000    -0.010440000000000
 C    1.965000000000000    -3.733700000000000    0.015910000000000
 C    0.639340000000000    -4.146480000000000    -0.126480000000000
 C    3.147630000000000    -1.476470000000000    -0.015980000000000
 C    -1.620780000000000    -2.974640000000000    -0.017310000000000
 C    -2.336100000000000    -1.819480000000000    0.013870000000000
 H    4.463900000000001    2.885230000000000    0.286010000000000
 H    5.237850000000000    0.476960000000000    -0.118110000000000
 C    2.358930000000000    4.521340000000000    -0.050440000000000
 H    -0.306820000000000    1.166360000000000    0.052270000000000
 H    -0.301730000000000    5.398590000000000    0.063860000000000
 H    -2.734880000000000    4.629900000000000    0.185090000000000
 C    -4.397420000000000    2.434930000000000    -0.006460000000000
 H    -4.450990000000000    -2.596530000000000    0.127720000000000
 H    -5.226140000000000    -0.160350000000000    -0.095230000000000
 H    0.368460000000000    -0.960990000000000    -0.016620000000000
 H    2.820260000000000    -4.392510000000000    0.077770000000000
 H    0.310690000000000    -5.174130000000000    -0.203890000000000
 C    4.531580000000000    -2.102480000000000    -0.035610000000000
 C    -2.374400000000000    -4.291369999999999    0.032450000000000
 C    -4.741190000000000    3.311750000000000    -1.050370000000000
 C    -5.977000000000000    3.965120000000000    -1.062590000000000
 H    -4.031900000000000    3.519110000000000    -1.850140000000000
 C    -6.911260000000000    3.708380000000000    -0.062580000000000
 H    -6.208570000000000    4.674480000000000    -1.853500000000000
 C    -6.599060000000000    2.823450000000000    0.966560000000000
 C    -5.340520000000000    2.215570000000000    1.011330000000000
 H    -7.333480000000000    2.610180000000000    1.739570000000000
 H    -5.112220000000000    1.548090000000000    1.840350000000000
 C    3.256720000000000    4.734290000000000    -1.112880000000000
 C    4.070410000000000    5.869650000000000    -1.151690000000000
 H    3.370520000000000    3.985610000000000    -1.895730000000000
 C    3.946060000000000    6.847820000000000    -0.169600000000000
 H    4.807020000000000    5.983140000000000    -1.943480000000000
 C    3.020070000000000    6.683940000000000    0.858240000000000
 C    2.251750000000000    5.517520000000001    0.933110000000000
 H    2.906760000000000    7.458130000000000    1.613260000000000
 H    1.565100000000000    5.396900000000000    1.768870000000000
 C    4.872220000000000    -3.027410000000000    -1.039010000000000
 C    6.122890000000000    -3.651820000000000    -1.053390000000000
 H    4.145120000000000    -3.295470000000000    -1.803690000000000
 C    7.080580000000000    -3.314800000000000    -0.101320000000000
 H    6.344820000000000    -4.401200000000000    -1.808820000000000
 C    6.772130000000000    -2.389760000000000    0.892460000000000
 C    5.494670000000000    -1.823420000000000    0.950700000000000
 H    7.522030000000000    -2.113930000000000    1.629310000000000
 H    5.266900000000000    -1.133430000000000    1.760630000000000
 C    -3.297960000000000    -4.666250000000000    -0.957890000000000
 C    -3.944920000000000    -5.905850000000000    -0.903880000000000
 H    -3.528960000000000    -3.989670000000000    -1.777670000000000
 C    -3.627980000000000    -6.818279999999999    0.100320000000000
 H    -4.684150000000000    -6.165690000000000    -1.657210000000000
 C    -2.689640000000000    -6.480600000000001    1.070970000000000
 C    -2.091670000000000    -5.217730000000000    1.053630000000000
 H    -2.411560000000000    -7.200630000000000    1.836380000000000
 H    -1.358000000000000    -4.974810000000000    1.820860000000000
 H    -14.630748630999998    6.681034433000000    0.154549569000000
 C    -13.948115927000000    7.037790930000000    -0.613247040000000
 C    -14.367430737999999    8.019465397999999    -1.508972187000000
 H    -15.372203815000001    8.428713626000000    -1.438289043000000
 C    -13.501793419000000    8.468502366000001    -2.502678058000000
 H    -13.827843193000000    9.226172674000001    -3.210916890000000
 C    -12.212517221000001    7.939942344000000    -2.594759086000000
 H    -11.548055052000000    8.296710493000001    -3.380763123000000
 C    -11.773605588000001    6.955474764000000    -1.694918442000000
 C    -10.384378368000000    6.422695767000000    -1.870746066000000
 C    -12.659387213000000    6.501270798000000    -0.706780171000000
 H    -12.393312761000001    5.716926106000000    -0.008029928000000
 O    -9.760427139999997    6.713088537000000    -2.888993744000000
 N    -9.887180738000000    5.624203694000000    -0.848917631000000
 H    -10.399435349000001    5.467142341000000    0.006264004000000
 N    -8.650852617000000    5.064658889000000    -0.979490182000000
 C    -8.282609384000001    4.273309642000000    -0.024471924000000
 H    -8.935359910000001    4.062860378000000    0.841616905000000
 H    7.318268867000000    14.246594955000001    -0.109598061000000
 C    7.674160920000000    13.518232241000000    -0.834582780000000
 C    8.711120016000001    13.856195340999999    -1.701952360000000
 H    9.164056612000000    14.843301678000000    -1.651765978000000
 C    9.159906384999999    12.931918099000001    -2.641481977000000
 H    9.961066803000000    13.194498361000001    -3.327899184000000
 C    8.575352228000000    11.665412010000001    -2.707409907000000
 H    8.932875052000000    10.954457084000000    -3.451262281000000
 C    7.534507998000000    11.308180149000000    -1.835308016000000
 C    6.944522336000000    9.938747209000001    -1.981223826000000
 C    7.081749043000000    12.252577190000000    -0.902328311000000
 H    6.257196614000000    12.050697417000000    -0.228828525000000
 O    7.247421175000000    9.261957116000000    -2.961366108000000
 N    6.081432376000000    9.519745791000000    -0.977011719000000
 H    5.913138742000000    10.072443071000000    -0.149599093000000
 N    5.470064565000000    8.305961405000000    -1.084732031000000
 C    4.622986045000000    8.012677430000000    -0.151812380000000
 H    4.407590790999999    8.708481075000000    0.678816402000000
 H    14.749744547000001    -6.335348027000000    0.033128877000000
 C    14.054148978000001    -6.741874719000000    -0.697389497000000
 C    14.470491409999999    -7.754634633000000    -1.559253493000000
 H    15.485962600000001    -8.138393469000000    -1.499282069000000
 C    13.587774856999999    -8.267717013000000    -2.505811196000000
 H    13.911053732999999    -9.050108994000000    -3.187961141000000
 C    12.284653855000000    -7.771932199000000    -2.584301955000000
 H    11.606705360999999    -8.178920163000001    -3.333529870000000
 C    11.848779202999999    -6.756615524000000    -1.717884988000000
 C    10.443322296000000    -6.262646836000000    -1.877280402000000
 C    12.751351995000000    -6.238195487000000    -0.777709158000000
 H    12.487131448000000    -5.428308017000000    -0.107997353000000
 O    9.797810092000001    -6.613209600000000    -2.862618503000000
 N    9.956887755000000    -5.428681210000000    -0.878876076000000
 H    10.489246592000001    -5.221226761000000    -0.047031497000000
 N    8.704888520000001    -4.902588803000001    -0.998757266000000
 C    8.345609239000000    -4.076062278000000    -0.070496051000000
 H    9.017455601000000    -3.811752540000000    0.765712554000000
 H    -6.863193637000000    -14.548959765999999    0.458484091000000
 C    -7.244021820000000    -13.861964784000000    -0.293700747000000
 C    -8.269138130000000    -14.268653902000000    -1.145506901000000
 H    -8.688066904999999    -15.267937176000000    -1.056171724000000
 C    -8.749576560000000    -13.397535996000000    -2.119542852000000
 H    -9.541542827000001    -13.713846756000001    -2.793866163000000
 C    -8.208658656000001    -12.115349639000000    -2.235705211000000
 H    -8.590528637000000    -11.446529805999999    -3.006063038000000
 C    -7.180316127000000    -11.689100668000000    -1.379926922000000
 C    -6.637515029000000    -10.307056522000000    -1.580031966000000
 C    -6.695222357000000    -12.580430980999999    -0.411659460000000
 H    -5.877808455000000    -12.324444220000000    0.252079498000000
 O    -6.963709965000000    -9.679697275000001    -2.585262621000000
 N    -5.788886254000000    -9.820040028999999    -0.594348162000000
 H    -5.601512182000000    -10.334016820000000    0.253665694000000
 N    -5.219383979000000    -8.591217775000001    -0.750264253000000
 C    -4.382487478000000    -8.233073917000000    0.169101728000000
 H    -4.143148771000000    -8.888232312000000    1.025820155000000




