%nproc=15
%mem=70GB
%chk=P_Aldehyde_Hydrazone_freq.chk
#P B3LYP/6-311++G(d,p) EmpiricalDispersion=GD3 freq(noraman) SCF=YQC

Restart from P_Aldehyde_Hydrazone-1.log

0 1
 C  -3.489778   2.539602  -0.635033
 C  -4.105559   1.335019  -0.636501
 C  -3.046029   0.330889  -0.658587
 C  -2.055430   2.268427  -0.640140
 N  -1.817046   0.924552  -0.656277
 C  -1.081247   3.284084  -0.644106
 C   0.304718   3.081641  -0.654388
 N   0.957528   1.871919  -0.654949
 C   2.319703   2.056701  -0.656986
 C   1.320063   4.093195  -0.651480
 C   2.539578   3.472990  -0.663697
 C   3.298133   1.054034  -0.662849
 C   3.046013  -0.330931  -0.658706
 N   1.817030  -0.924592  -0.656304
 C   3.489761  -2.539643  -0.635073
 C   4.105544  -1.335060  -0.636621
 C  -0.304734  -3.081683  -0.654264
 N  -0.957544  -1.871961  -0.654839
 C  -2.319719  -2.056744  -0.656806
 C  -2.539594  -3.473033  -0.663461
 C  -1.320078  -4.093237  -0.651274
 C  -3.298149  -1.054075  -0.662662
 C   1.081232  -3.284123  -0.644038
 C   2.055414  -2.268467  -0.640143
 H  -3.948130   3.515611  -0.627767
 H  -5.164878   1.134913  -0.618217
 C  -1.546082   4.705842  -0.634885
 H   0.499274   0.968375  -0.653066
 H   1.125946   5.152849  -0.639021
 H   3.510064   3.940768  -0.672803
 C   4.721505   1.512008  -0.676332
 H   3.948112  -3.515653  -0.627782
 H   5.164864  -1.134955  -0.618386
 H  -0.499292  -0.968417  -0.653009
 H  -3.510080  -3.940811  -0.672507
 H  -1.125958  -5.152890  -0.638789
 C  -4.721523  -1.512050  -0.676060
 C   1.546070  -4.705881  -0.634789
 C   5.291274   2.122107   0.452021
 C   6.610499   2.549687   0.445800
 H   4.686715   2.251561   1.342483
 C   7.404780   2.379985  -0.700474
 H   7.044631   3.014136   1.322718
 C   6.837800   1.770760  -1.827865
 C   5.513997   1.342779  -1.815692
 H   7.435693   1.634209  -2.723622
 H   5.086158   0.874501  -2.694504
 C  -2.117947   5.265246   0.518265
 C  -2.550161   6.582763   0.535893
 H  -2.218318   4.652194   1.406582
 C  -2.422853   7.385803  -0.609928
 H  -2.987318   7.008517   1.430760
 C  -1.851708   6.829025  -1.761899
 C  -1.418176   5.506715  -1.773389
 H  -1.749876   7.433167  -2.658094
 H  -0.982132   5.086061  -2.672185
 C  -5.291244  -2.122086   0.452352
 C  -6.610470  -2.549663   0.446211
 H  -4.686646  -2.251493   1.342794
 C  -7.404800  -2.380021  -0.700038
 H  -7.044565  -3.014064   1.323173
 C  -6.837868  -1.770860  -1.827488
 C  -5.514063  -1.342882  -1.815394
 H  -7.435798  -1.634359  -2.723226
 H  -5.086261  -0.874653  -2.694251
 C   2.117968  -5.265251   0.518361
 C   2.550184  -6.582766   0.536014
 H   2.218365  -4.652174   1.406658
 C   2.422846  -7.385839  -0.609781
 H   2.987367  -7.008495   1.430881
 C   1.851670  -6.829094  -1.761753
 C   1.418137  -5.506785  -1.773267
 H   1.749815  -7.433261  -2.657928
 H   0.982067  -5.086156  -2.672063
 H   15.547185   3.460243  -0.644179
 C   14.919853   4.157265  -0.100360
 C   15.461493   5.336729   0.407464
 H   16.509138   5.565198   0.247437
 C   14.656448   6.215772   1.133490
 H   15.077415   7.129407   1.537415
 C   13.314591   5.919236   1.346642
 H   12.679659   6.579921   1.924151
 C   12.757815   4.748735   0.819439
 C   11.305095   4.488882   1.102074
 C   13.572559   3.864178   0.101895
 H   13.175042   2.924805  -0.266564
 O   10.746746   4.901679   2.096216
 N   10.660227   3.752480   0.115896
 H   11.135108   3.587229  -0.767234
 N   9.360597   3.394747   0.249598
 C   8.799098   2.819752  -0.746735
 H   9.344203   2.631417  -1.682140
 H  -3.540793   15.522998  -0.484369
 C  -4.207213   14.890877   0.091337
 C  -5.363689   15.425074   0.656655
 H  -5.605411   16.471683   0.509860
 C  -6.202141   14.613918   1.422781
 H  -7.097505   15.029073   1.871183
 C  -5.888258   13.273390   1.618766
 H  -6.516740   12.633788   2.226283
 C  -4.741601   12.724042   1.034484
 C  -4.460522   11.272277   1.301406
 C  -3.897295   13.544897   0.276561
 H  -2.974723   13.153214  -0.137758
 O  -4.821241   10.710176   2.313476
 N  -3.769668   10.632981   0.279228
 H  -3.649864   11.110422  -0.609840
 N  -3.400571   9.334581   0.392176
 C  -2.869041   8.778759  -0.631062
 H  -2.724535   9.328029  -1.571833
 H  -15.547196  -3.460186  -0.643326
 C  -14.919854  -4.157182  -0.099486
 C  -15.461497  -5.336597   0.408449
 H  -16.509156  -5.565053   0.248488
 C  -14.656439  -6.215606   1.134501
 H  -15.077408  -7.129202   1.538511
 C  -13.314565  -5.919085   1.347568
 H  -12.679621  -6.579744   1.925095
 C  -12.757787  -4.748636   0.820255
 C  -11.305047  -4.488797   1.102801
 C  -13.572544  -3.864112   0.102686
 H  -13.175022  -2.924775  -0.265861
 O  -10.746664  -4.901515   2.096956
 N  -10.660217  -3.752459   0.116551
 H  -11.135134  -3.587260  -0.766570
 N  -9.360581  -3.394721   0.250177
 C  -8.799121  -2.819788  -0.746214
 H  -9.344266  -2.631506  -1.681606
 H   3.540754  -15.523025  -0.484016
 C   4.207191  -14.890895   0.091659
 C   5.363670  -15.425089   0.656974
 H   5.605376  -16.471706   0.510208
 C   6.202146  -14.613920   1.423061
 H   7.097511  -15.029073   1.871461
 C   5.888283  -13.273382   1.619010
 H   6.516783  -12.633770   2.226496
 C   4.741622  -12.724038   1.034731
 C   4.460566  -11.272261   1.301611
 C   3.897293  -13.544906   0.276847
 H   2.974720  -13.153224  -0.137469
 O   4.821299  -10.710135   2.313662
 N   3.769687  -10.632993   0.279433
 H   3.649859  -11.110460  -0.609618
 N   3.400593  -9.334590   0.392353
 C   2.869035  -8.778796  -0.630887
 H   2.724505  -9.328095  -1.571638






