%nproc=15
%mem=70GB
%chk=TrisPhenyl_BoronicAcid_BoronateEster_freq.chk
#P B3LYP/6-311++G(d,p) EmpiricalDispersion=GD3 freq(noraman) SCF=YQC

Restart from TrisPhenyl_BoronicAcid_BoronateEster.log

0 1
 C  -2.952256  -4.902720  -0.000969
 C  -3.356942  -3.814854  -0.791692
 C  -2.640890  -2.624396  -0.792455
 C  -1.491004  -2.477527  -0.001256
 C  -1.083337  -3.562666   0.789997
 C  -1.801199  -4.752046   0.789500
 C  -0.725515  -1.206413  -0.001166
 C   0.673846  -1.216728  -0.001063
 C   1.408800  -0.025859  -0.000947
 C   0.718056   1.191188  -0.000881
 C  -0.680735   1.232200  -0.000918
 C  -1.389367   0.025494  -0.001078
 C  -1.398965   2.530598  -0.000671
 C  -2.542566   2.719622   0.790683
 C  -3.214122   3.935735   0.790307
 C  -2.769540   5.008133  -0.000133
 C  -1.624950   4.815231  -0.790807
 C  -0.951546   3.600127  -0.791692
 C   2.892360  -0.053162  -0.000783
 C   3.628060   0.842835   0.790247
 C   5.017024   0.816117   0.789862
 C   5.723291  -0.105520  -0.000222
 C   4.983746  -1.000425  -0.790603
 C   3.594748  -0.975759  -0.791533
 H   1.198238  -2.164785  -0.001077
 H  -2.472609   0.045392  -0.001104
 H   1.276839   2.119396  -0.000747
 H  -2.890130   1.913963   1.427424
 H  -0.084408   3.466730  -1.428570
 H  -4.090718   4.063745   1.416051
 H  -1.267703   5.626072  -1.416326
 H  -1.474143  -5.575336   1.415274
 H  -0.211855  -3.461248   1.426835
 H  -4.237766  -3.910510  -1.417282
 H  -2.958588  -1.806605  -1.429332
 H   3.045575  -1.660094  -1.428258
 H   5.507181  -1.715576  -1.415852
 H   5.566292   1.511391   1.415374
 H   3.104311   1.546964   1.426806
 B  -3.745193  -6.218031  -0.000497
 O  -3.416393  -7.342207   0.755628
 O  -4.893237  -6.452306  -0.755949
 C  -4.378645  -8.283050   0.459955
 C  -5.276424  -7.742070  -0.458972
 C  -4.511861  -9.570091   0.943453
 C  -6.353054  -8.460622  -0.941182
 C  -5.599978  -10.310344   0.462562
 C  -6.500133  -9.767925  -0.458939
 H  -3.807812  -9.978525   1.657051
 H  -7.043129  -8.028986  -1.654773
 H  -5.744688  -11.325007   0.813962
 H  -7.330415  -10.369473  -0.809277
 B  -3.513184   6.351932   0.000150
 O  -4.651494   6.628253   0.756127
 O  -3.143124   7.463541  -0.755485
 C  -4.986570   7.931549   0.460054
 C  -4.069632   8.439330  -0.458896
 C  -6.035538   8.689351   0.943142
 C  -4.155043   9.730744  -0.941529
 C  -6.134045   10.001542   0.461799
 C  -5.214672   10.510676  -0.459723
 H  -6.740923   8.283233   1.656743
 H  -3.436543   10.113164  -1.655138
 H  -6.941232   10.633348   0.812848
 H  -5.321644   11.530248  -0.810427
 B   7.258862  -0.133978   0.000106
 O   8.067731   0.713447   0.755880
 O   8.036082  -1.010828  -0.755321
 C   9.363784   0.351258   0.459912
 C   9.344543  -0.696938  -0.458789
 C   10.544814   0.880288   0.942901
 C   10.505358  -1.269380  -0.941286
 C   11.730163   0.308779   0.461697
 C   11.710869  -0.742187  -0.459584
 H   10.546210   1.694383   1.656324
 H   10.476884  -2.082977  -1.654709
 H   12.681110   0.691501   0.812677
 H   12.647123  -1.159895  -0.810171






