%nproc=15
%mem=70GB
%chk=TrisPhenyl_BoronicAcid_BoronateEster.chk
#P B3LYP/6-311++G(d,p) EmpiricalDispersion=GD3 opt SCF=YQC

Comment

0 1
 C    5.413628598000000    -1.872546979000000    -0.010594081000000
 C    5.035722949999999    -0.755661278000000    0.753536436000000
 C    3.723673695000000    -0.300430655000000    0.759525264000000
 C    2.735803795999999    -0.944625681000000    0.000449131000000
 C    3.108315992000000    -2.059076085000000    -0.765208093000000
 C    4.420719166000000    -2.513357956000000    -0.770224134000000
 C    1.334053259000000    -0.458848890000000    0.000402830000000
 C    0.268355259000000    -1.366873890000000    0.008860830000000
 C    -1.059173741000000    -0.922488890000000    0.008337830000000
 C    -1.309241741000000    0.453656110000000    0.006809830000000
 C    -0.264218741000000    1.383363110000000    0.003920830000000
 C    1.053270259000000    0.911980110000000    -0.001354170000000
 C    -0.547166741000000    2.832910110000000    0.023508830000000
 C    0.132648259000000    3.710843110000000    -0.833951170000000
 C    -0.134981741000000    5.073690110000000    -0.817152170000000
 C    -1.095013741000000    5.616633110000000    0.054395830000000
 C    -1.773249741000000    4.731796110000000    0.910653830000000
 C    -1.504821741000000    3.368908110000000    0.897304830000000
 C    -2.182774741000000    -1.891955890000000    -0.017346170000000
 C    -3.315488741000000    -1.662366890000000    -0.812060170000000
 C    -4.366923741000000    -2.569668890000000    -0.831200170000000
 C    -4.330026741000000    -3.741083890000000    -0.056511170000000
 C    -3.194045741000000    -3.964973890000000    0.739344830000000
 C    -2.141176741000000    -3.059528890000000    0.758579830000000
 H    0.474380259000000    -2.429560890000000    -0.040814170000000
 H    1.873134259000000    1.618471110000000    0.074149830000000
 H    -2.335361741000000    0.804210110000000    -0.020704170000000
 H    0.839454259000000    3.316212110000000    -1.556644170000000
 H    -2.004881741000000    2.721095110000000    1.609926830000000
 H    0.396903259000000    5.726432110000000    -1.500808170000000
 H    -2.509284741000000    5.119474110000000    1.606548830000000
 H    4.680359519000000    -3.384593294000000    -1.361290287000000
 H    2.355934167000000    -2.588063678000000    -1.339179593000000
 H    5.783140304000000    -0.232983007000000    1.339887964000000
 H    3.464345167000000    0.579450163000000    1.337108744000000
 H    -1.287700741000000    -3.244167890000000    1.400987830000000
 H    -3.142543741000000    -4.854378890000000    1.357384830000000
 H    -5.225637741000000    -2.375433890000000    -1.464217170000000
 H    -3.358715741000000    -0.779456890000000    -1.439657170000000
 B    6.867636685000000    -2.375486799000000    -0.013443895000000
 O    7.324328029000000    -3.472046137000000    -0.740898661000000
 O    7.906799003000000    -1.796349927000000    0.711072611000000
 C    8.669556863000000    -3.569434157000000    -0.458725602000000
 C    9.023700746999999    -2.550613861000000    0.424071017000000
 C    9.590047175000000    -4.487929091000000    -0.925063884000000
 C    10.316602602000000    -2.397735110000000    0.886066289000000
 C    10.905198389999999    -4.344501208000000    -0.464470634000000
 C    11.260430757000000    -3.322549506000000    0.421039314000000
 H    9.302609354000001    -5.274770566000000    -1.610556039000000
 H    10.579173801000000    -1.602293046000000    1.571606602000000
 H    11.662118642999999    -5.041880722000000    -0.803120994000000
 H    12.287653076000000    -3.242306358000000    0.756190185000000
 B    -1.389404554000000    7.126671660000000    0.069015188000000
 O    -0.760121911000000    8.063600313000000    -0.747298390000000
 O    -2.321544034000000    7.743243756000000    0.900361595000000
 C    -1.315411959000000    9.279314536999999    -0.411979786000000
 C    -2.264755020000000    9.084540558000000    0.589795341000000
 C    -1.040324323000000    10.531069350999999    -0.927579851000000
 C    -2.987980020000000    10.131474449000001    1.127644557000000
 C    -1.766704698000000    11.601974959000000    -0.391041737000000
 C    -2.718965624000000    11.406602331000000    0.613812407000000
 H    -0.300614889000000    10.669402578000000    -1.705611582000000
 H    -3.722654171000000    9.967316730000000    1.905425611000000
 H    -1.585023159000000    12.602755058000000    -0.764380102000000
 H    -3.261877201000000    12.258718729000000    1.005086513000000
 B    -5.494172027000000    -4.746882519000000    -0.071708948000000
 O    -6.654212015000000    -4.603355739000000    -0.829275506000000
 O    -5.531787833000000    -5.925150209000000    0.670215785000000
 C    -7.419863864000000    -5.714006341000000    -0.548243187000000
 C    -6.737433278000000    -6.517657230000000    0.363445521000000
 C    -8.664753996000000    -6.057000464000000    -1.039171230000000
 C    -7.264691287000000    -7.705756634999999    0.831233450000000
 C    -9.211311095999999    -7.259631696000000    -0.573023320000000
 C    -8.526783018000000    -8.065752654000001    0.341467518000000
 H    -9.184724537999999    -5.424340961000000    -1.746993306000000
 H    -6.724812024000000    -8.321214481000000    1.539314840000000
 H    -10.185981090000000    -7.570018147000000    -0.930275579000000
 H    -8.980581923000001    -8.989531101000001    0.680068607000000




