%nproc=15
%mem=70GB
%chk=Pyrene_Aldehyde_Imine_freq.chk
#P B3LYP/6-311++G(d,p) EmpiricalDispersion=GD3 freq(noraman) SCF=YQC NoSymm

Restart from Pyrene_Aldehyde_Imine.log

0 1
 C  -0.009719   3.526706  -0.030379
 C  -1.216921   2.818553  -0.016987
 C  -1.239592   1.419663  -0.004644
 C  -0.002776   0.710747  -0.005697
 C   1.230237   1.433069  -0.019096
 C   1.204909   2.828697  -0.031378
 H  -2.156962   3.362243  -0.015833
 H   2.129703   3.393363  -0.042045
 C   0.002932  -0.710759   0.005697
 C  -1.230080  -1.433080   0.019096
 C  -1.204752  -2.828709   0.031378
 C   0.009875  -3.526717   0.030379
 C   1.217077  -2.818564   0.016987
 C   1.239749  -1.419674   0.004644
 H  -2.129547  -3.393375   0.042044
 H   2.157119  -3.362254   0.015833
 C   2.461399   0.689565  -0.020415
 C   2.465646  -0.668744  -0.009122
 H   3.394761   1.242006  -0.031140
 H   3.403738  -1.213754  -0.010521
 C  -2.465490   0.668732   0.009122
 C  -2.461243  -0.689576   0.020414
 H  -3.403582   1.213743   0.010521
 H  -3.394605  -1.242017   0.031140
 C   0.839394   9.915015  -0.198018
 C   1.734553   9.263010   0.652219
 C  -0.005638   9.163482  -1.013453
 C   0.026322   7.771869  -0.969305
 C   0.913278   7.112228  -0.103309
 C   1.785410   7.873980   0.688019
 C  -0.045829   4.994667  -0.043838
 N   1.009199   5.712309  -0.029252
 H   2.403105   9.840247   1.281197
 H  -0.686635   9.661658  -1.694760
 H  -0.609372   7.191903  -1.628728
 H   2.486100   7.356234   1.332391
 H  -1.048213   5.445320  -0.052179
 H   0.812544   10.997885  -0.235773
 C  -0.839237  -9.915027   0.198019
 C  -1.734395  -9.263021  -0.652220
 C   0.005792  -9.163492   1.013455
 C  -0.026168  -7.771880   0.969307
 C  -0.913122  -7.112239   0.103309
 C  -1.785252  -7.873991  -0.688021
 C   0.045985  -4.994678   0.043838
 N  -1.009044  -5.712320   0.029251
 H  -2.402945  -9.840259  -1.281199
 H   0.686789  -9.661669   1.694764
 H   0.609524  -7.191914   1.628731
 H  -2.485941  -7.356246  -1.332395
 H   1.048368  -5.445330   0.052179
 H  -0.812387  -10.997896   0.235775






