%nproc=15
%mem=70GB
%chk=Pyrene_Aldehyde_Imine.chk
#P B3LYP/6-311++G(d,p) EmpiricalDispersion=GD3 opt SCF=YQC NoSymm

Comment

0 1
 C    0.000149000000000    3.538221000000000    0.000000000000000
 C    -1.208314000000000    2.825814000000000    0.000000000000000
 C    -1.234523000000000    1.426499000000000    0.000000000000000
 C    0.000173000000000    0.711855000000000    0.000000000000000
 C    1.234878000000000    1.426489000000000    0.000000000000000
 C    1.208633000000000    2.825798000000000    0.000000000000000
 H    -2.147734000000000    3.368891000000000    0.000000000000000
 H    2.148055000000000    3.368886000000000    0.000000000000000
 C    0.000167000000000    -0.711882000000000    0.000000000000000
 C    -1.234536000000000    -1.426518000000000    0.000000000000000
 C    -1.208310000000000    -2.825825000000000    0.000000000000000
 C    0.000175000000000    -3.538236000000000    0.000000000000000
 C    1.208656000000000    -2.825835000000000    0.000000000000000
 C    1.234871000000000    -1.426526000000000    0.000000000000000
 H    -2.147732000000000    -3.368910000000000    0.000000000000000
 H    2.148078000000000    -3.368915000000000    0.000000000000000
 C    2.463326000000000    0.679235000000000    0.000000000000000
 C    2.463326000000000    -0.679271000000000    0.000000000000000
 H    3.399127000000000    1.228117000000000    0.000000000000000
 H    3.399123000000000    -1.228155000000000    0.000000000000000
 C    -2.462978000000000    0.679245000000000    0.000000000000000
 C    -2.462987000000000    -0.679261000000000    0.000000000000000
 H    -3.398774000000000    1.228133000000000    0.000000000000000
 H    -3.398787000000000    -1.228142000000000    0.000000000000000
 C    0.836099307000000    9.926285236000000    -0.212037559000000
 C    1.740493262000000    9.281306278000001    0.633737451000000
 C    -0.017145052000000    9.168326916000000    -1.013061361000000
 C    0.015512007000000    7.777291442000000    -0.958571304000000
 C    0.911577819000000    7.124453697000000    -0.096365628000000
 C    1.792245156000000    7.892632744000000    0.679430179000000
 C    -0.043190048000000    5.003998104000000    -0.025593073000000
 N    1.009860208000000    5.725880440000000    -0.010308323000000
 H    2.415526741000000    9.863602090000001    1.250962251000000
 H    -0.704913055000000    9.661219210000001    -1.691358083000000
 H    -0.626428280000000    7.192787137000000    -1.607775174000000
 H    2.499892321000000    7.379739648000000    1.320014296000000
 H    -1.047371822000000    5.450083325000000    -0.043422715000000
 H    0.808388762000000    11.008809539000000    -0.257915655000000
 C    -0.836099307000000    -9.926285236000000    0.212037559000000
 C    -1.740493262000000    -9.281306278000001    -0.633737451000000
 C    0.017145052000000    -9.168326916000000    1.013061361000000
 C    -0.015512007000000    -7.777291442000000    0.958571304000000
 C    -0.911577819000000    -7.124453697000000    0.096365628000000
 C    -1.792245156000000    -7.892632744000000    -0.679430179000000
 C    0.043190048000000    -5.003998104000000    0.025593073000000
 N    -1.009860208000000    -5.725880440000000    0.010308323000000
 H    -2.415526741000000    -9.863602090000001    -1.250962251000000
 H    0.704913055000000    -9.661219210000001    1.691358083000000
 H    0.626428280000000    -7.192787137000000    1.607775174000000
 H    -2.499892321000000    -7.379739648000000    -1.320014296000000
 H    1.047371822000000    -5.450083325000000    0.043422715000000
 H    -0.808388762000000    -11.008809539000000    0.257915655000000




