%nproc=15
%mem=70GB
%chk=3_Phenyl_BoronicAcid_Borosilicate_freq.chk
#P B3LYP/6-311++G(d,p) EmpiricalDispersion=GD3 freq(noraman) SCF=YQC

Restart from 3_Phenyl_BoronicAcid_Borosilicate.log

0 1
 C   1.348433   0.437151  -0.007147
 C   0.291679   1.359180  -0.007257
 C  -1.049948   0.950804  -0.007047
 C  -1.319939  -0.425356  -0.006773
 C  -0.295593  -1.383108  -0.006717
 C   1.031169  -0.928872  -0.006995
 H  -2.351912  -0.758959  -0.006568
 H   1.836021  -1.655824  -0.007102
 H   0.518753   2.419704  -0.007365
 B   2.827279   0.914559  -0.006669
 O   3.838507  -0.019277  -0.001359
 O   3.102244   2.263234  -0.013191
Si   5.486491  -0.064306   0.015828
Si   4.414284   3.261698  -0.014322
 O   6.075550   0.690448  -1.332814
 O   6.047692   0.706608   1.367170
 H   5.935099  -1.449920   0.028637
 O   5.319713   2.988477   1.342533
 O   5.333394   2.967746  -1.357520
 H   3.969761   4.648627  -0.027186
 B   6.020830   1.925973  -1.917245
 H   6.589959   2.100288  -2.946084
 B   5.994945   1.953012   1.928236
 H   6.554424   2.142635   2.959652
 B  -0.621031  -2.902644  -0.006352
 O  -1.935011  -3.312423  -0.005901
 O   0.410050  -3.814445  -0.007832
Si  -2.797708  -4.717288   0.007888
Si   0.618951  -5.449995  -0.007108
 O  -2.432944  -5.605066  -1.339074
 O  -2.416790  -5.588471   1.361155
 H  -4.222029  -4.413038   0.014457
 O  -0.076286  -6.096780   1.347164
 O  -0.089487  -6.099711  -1.353056
 H   2.042421  -5.758308  -0.013642
 B  -1.332754  -6.175100  -1.918409
 H  -1.461465  -6.755679  -2.947561
 B  -1.313103  -6.164816   1.927423
 H  -1.432733  -6.743908   2.958502
 B  -2.203813   1.991715  -0.007107
 O  -1.903033   3.334956  -0.007330
 O  -3.508469   1.552978  -0.007052
Si  -2.691760   4.782696   0.006811
Si  -5.030809   2.185936  -0.004679
 O  -3.645455   4.907419  -1.338730
 O  -3.635312   4.886583   1.361226
 H  -1.718761   5.866469   0.011481
 O  -5.243647   3.111541   1.349361
 O  -5.243103   3.122691  -1.351079
 H  -6.007075   1.105093  -0.009235
 B  -4.688727   4.237856  -1.916982
 H  -5.128742   4.638873  -2.945747
 B  -4.684804   4.217532   1.928693
 H  -5.125847   4.610274   2.960202






