%nproc=15
%mem=70GB
%chk=3_Phenyl_BoronicAcid_Borosilicate.chk
#P B3LYP/6-311++G(d,p) EmpiricalDispersion=GD3 opt SCF=YQC

Comment

0 1
 C    1.212954000000000    0.700272000000000    0.000000000000000
 C    1.208877000000000    -0.698223000000000    0.000000000000000
 C    -0.000137000000000    -1.400767000000000    0.000000000000000
 C    -1.209188000000000    -0.698053000000000    0.000000000000000
 C    -1.213163000000000    0.700261000000000    0.000000000000000
 C    0.000000000000000    1.395989000000000    0.000000000000000
 H    -2.145136000000000    -1.238581000000000    0.000000000000000
 H    -0.000098000000000    2.476797000000000    0.000000000000000
 H    2.144938000000000    -1.238545000000000    0.000000000000000
 B    2.571913093000000    1.498283883000000    0.034968827000000
 O    2.578529279000000    2.838824045000000    0.014572024000000
 O    3.745426155000000    0.849041742000000    0.052557417000000
Si    3.555165441000000    4.092737474000000    -0.155972593000000
Si    5.320820319000000    1.087227692000000    -0.073217621000000
 O    4.592882682000000    4.054019412000000    1.059018911000000
 O    4.396435346000000    3.865684208000000    -1.496641107000000
 H    2.807238471000000    5.357269948000000    -0.196295435000000
 O    5.575282087000000    1.881501933000000    -1.436907324000000
 O    5.753300552000000    2.058122712000000    1.121033748000000
 H    6.061885029000000    -0.181592312000000    -0.039668928000000
 B    5.505175890999999    3.266524991000000    1.645190093000000
 H    5.871857269000000    3.514044080000000    2.739559720000000
 B    5.224188976000000    2.996203348000000    -2.092881407000000
 H    5.382986797000000    3.054961340000000    -3.261054176000000
 B    -2.583830701000000    1.477990281000000    0.034968827000000
 O    -3.748004077000000    0.813315886000000    0.014572024000000
 O    -2.608481497000000    2.818900644000000    0.052557417000000
Si    -5.322268238000000    1.031969568000000    -0.155972593000000
Si    -3.602597089000000    4.064024537000000    -0.073217621000000
 O    -5.807701775000000    1.949962183000000    1.059018911000000
 O    -5.546366288000000    1.874031504000000    -1.496641107000000
 H    -6.043274559000000    -0.248103482000000    -0.196295435000000
 O    -4.417669276999999    3.887163888000000    -1.436907324000000
 O    -4.659644175000000    3.952994139000000    1.121033748000000
 H    -2.874446089000000    5.340299285000001    -0.039668928000000
 B    -5.581994564000000    3.133804494000000    1.645190093000000
 H    -5.979715392000000    3.327554529000000    2.739559720000000
 B    -5.207383238000000    3.025666658000000    -2.092881407000000
 H    -5.337680518000000    3.133795602000000    -3.261054176000000
 B    0.011354508000000    -2.976666974000000    0.034968827000000
 O    1.168933550000000    -3.652760504000000    0.014572024000000
 O    -1.137718171000000    -3.668245055000000    0.052557417000000
Si    1.766417188000000    -5.125557293000000    -0.155972593000000
Si    -1.719260193000000    -5.151622348000000    -0.073217621000000
 O    1.213956596000000    -6.004843057000000    1.059018911000000
 O    1.149098577000000    -5.740541823000000    -1.496641107000000
 H    3.235499165000000    -5.110218640000000    -0.196295435000000
 O    -1.158679373000000    -5.769175184000000    -1.436907324000000
 O    -1.094750143000000    -6.011659260000000    1.121033748000000
 H    -3.188623497000000    -5.158874322000000    -0.039668928000000
 B    0.075787755000000    -6.401072851000000    1.645190093000000
 H    0.106769177000000    -6.842390293000000    2.739559720000000
 B    -0.017793572000000    -6.022562650000000    -2.092881407000000
 H    -0.046320074000000    -6.189462285000000    -3.261054176000000




