%nproc=15
%mem=70GB
%chk=Boroxine_benzene_freq.chk
#P B3LYP/6-311++G(d,p) EmpiricalDispersion=GD3 freq(noraman) SCF=YQC

Restart from Boroxine_benzene.log

0 1
 O  -1.345122   0.279864  -0.000007
 O   0.914930   1.024978  -0.000007
 O   0.430192  -1.304842  -0.000007
 B  -0.435776   1.321765  -0.000007
 B   1.362570  -0.283489  -0.000007
 B  -0.926794  -1.038276  -0.000007
 C  -2.291767   3.098096   0.000000
 C   3.828914   0.435680   0.000000
 C  -1.537146  -3.533777   0.000000
 H  -3.012167   2.287552  -0.000002
 H   3.487162   1.464837  -0.000002
 H  -0.474995  -3.752389  -0.000002
 C  -0.920645   2.792568  -0.000002
 C   2.878757  -0.598982  -0.000002
 C  -1.958112  -2.193585  -0.000002
 C  -0.433294   5.176602   0.000004
 C   4.699716  -2.213058   0.000004
 C  -4.266422  -2.963545   0.000004
 H   0.288016   5.986348   0.000006
 H   5.040321  -3.242603   0.000006
 H  -5.328337  -2.743744   0.000006
 C  -1.799887   5.459749   0.000006
 C   5.628225  -1.171126   0.000006
 C  -3.828338  -4.288622   0.000006
 C  -0.000000   3.853579   0.000000
 C   3.337297  -1.926789   0.000000
 C  -3.337297  -1.926789   0.000000
 H   1.061175   3.630279  -0.000002
 H   2.613326  -2.734144  -0.000002
 H  -3.674501  -0.896135  -0.000002
 C  -2.730196   4.419423   0.000004
 C   5.192430   0.154708   0.000004
 C  -2.462234  -4.574131   0.000004
 H  -3.791639   4.641482   0.000006
 H   5.915461   0.962915   0.000006
 H  -2.123822  -5.604397   0.000006
 H  -2.139468   6.489899   0.000009
 H   6.690151  -1.392116   0.000009
 H  -4.550683  -5.097783   0.000009






