%nproc=15
%mem=70GB
%chk=Pyrene_PrimaryAmine_Imine.chk
#P B3LYP/6-311++G(d,p) EmpiricalDispersion=GD3 opt SCF=YQC NoSymm

Comment

0 1
 C    0.000149000000000    3.538221000000000    0.000000000000000
 C    -1.208314000000000    2.825814000000000    0.000000000000000
 C    -1.234523000000000    1.426499000000000    0.000000000000000
 C    0.000173000000000    0.711855000000000    0.000000000000000
 C    1.234878000000000    1.426489000000000    0.000000000000000
 C    1.208633000000000    2.825798000000000    0.000000000000000
 H    -2.147734000000000    3.368891000000000    0.000000000000000
 H    2.148055000000000    3.368886000000000    0.000000000000000
 C    0.000167000000000    -0.711882000000000    0.000000000000000
 C    -1.234536000000000    -1.426518000000000    0.000000000000000
 C    -1.208310000000000    -2.825825000000000    0.000000000000000
 C    0.000175000000000    -3.538236000000000    0.000000000000000
 C    1.208656000000000    -2.825835000000000    0.000000000000000
 C    1.234871000000000    -1.426526000000000    0.000000000000000
 H    -2.147732000000000    -3.368910000000000    0.000000000000000
 H    2.148078000000000    -3.368915000000000    0.000000000000000
 C    2.463326000000000    0.679235000000000    0.000000000000000
 C    2.463326000000000    -0.679271000000000    0.000000000000000
 H    3.399127000000000    1.228117000000000    0.000000000000000
 H    3.399123000000000    -1.228155000000000    0.000000000000000
 C    -2.462978000000000    0.679245000000000    0.000000000000000
 C    -2.462987000000000    -0.679261000000000    0.000000000000000
 H    -3.398774000000000    1.228133000000000    0.000000000000000
 H    -3.398787000000000    -1.228142000000000    0.000000000000000
 N    -0.044539501000000    4.937106382000000    -0.054107821000000
 C    0.686664762000000    5.635827719999999    0.725355930000000
 C    0.736984652000000    7.100962865000000    0.671430128000000
 C    1.546859753000000    7.791853712000000    1.583014036000000
 C    1.617643818000000    9.182565943000000    1.555015828000000
 C    0.877750602000000    9.895856949000001    0.613948419000000
 C    0.066580341000000    9.214547638999999    -0.298939494000000
 C    -0.004866608000000    7.828395173000000    -0.273313350000000
 H    1.312033860000000    5.165971765999999    1.497481739000000
 H    2.122378373000000    7.235308594000000    2.316067855000000
 H    2.247173531000000    9.707414301000000    2.264400793000000
 H    0.930588344000000    10.978523729999999    0.589545650000000
 H    -0.508545063000000    9.770883553000001    -1.030529967000000
 H    -0.628385125000000    7.286831371000000    -0.974058821000000
 N    0.044539501000000    -4.937106382000000    0.054107821000000
 C    -0.686664762000000    -5.635827719999999    -0.725355930000000
 C    -0.736984652000000    -7.100962865000000    -0.671430128000000
 C    -1.546859753000000    -7.791853712000000    -1.583014036000000
 C    -1.617643818000000    -9.182565943000000    -1.555015828000000
 C    -0.877750602000000    -9.895856949000001    -0.613948419000000
 C    -0.066580341000000    -9.214547638999999    0.298939494000000
 C    0.004866608000000    -7.828395173000000    0.273313350000000
 H    -1.312033860000000    -5.165971765999999    -1.497481739000000
 H    -2.122378373000000    -7.235308594000000    -2.316067855000000
 H    -2.247173531000000    -9.707414301000000    -2.264400793000000
 H    -0.930588344000000    -10.978523729999999    -0.589545650000000
 H    0.508545063000000    -9.770883553000001    1.030529967000000
 H    0.628385125000000    -7.286831371000000    0.974058821000000




