%nproc=15
%mem=70GB
%chk=TPG_Aldehyde_Imine_freq.chk
#P B3LYP/6-311++G(d,p) EmpiricalDispersion=GD3 freq(noraman) SCF=YQC

Restart from TPG_Aldehyde_Imine.log

0 1
 C   1.088071   0.923651  -0.051750
 C  -0.253686   1.383829  -0.053363
 O  -0.516692   2.686119  -0.055417
 C  -1.344023   0.480579  -0.051886
 C  -1.071663  -0.911504  -0.053372
 O  -2.067969  -1.790446  -0.055398
 C   0.255736  -1.404144  -0.051781
 C   1.325138  -0.472231  -0.053194
 O   2.584460  -0.895597  -0.055081
 H  -2.934833  -1.263407  -0.061569
 H   2.561339  -1.909860  -0.061320
 H   0.373209   3.173306  -0.061639
 C   5.141523   5.930462   0.069648
 C   3.978857   6.182795  -0.659664
 C   5.262791   4.735667   0.778475
 C   4.239388   3.792242   0.751912
 C   3.077594   4.034154   0.003104
 C   2.949217   5.248203  -0.685147
 C   2.194278   1.848789  -0.051275
 N   2.002427   3.127925  -0.055836
 H   3.871886   7.112969  -1.206317
 H   6.152981   4.541418   1.366359
 H   4.326554   2.882462   1.334561
 H   2.041118   5.436184  -1.246261
 H   3.197029   1.418925  -0.061693
 H   5.939218   6.663634   0.096395
 C  -7.706838   1.487135   0.069855
 C  -7.344031   0.353951  -0.659270
 C  -6.732712   2.189853   0.778350
 C  -5.403937   1.775411   0.751660
 C  -5.032565   0.648157   0.003080
 C  -6.019793  -0.070310  -0.684873
 C  -2.698341   0.975972  -0.051515
 N  -3.710137   0.170213  -0.055858
 H  -8.096131  -0.203978  -1.205673
 H  -7.009584   3.058020   1.366063
 H  -4.659554   2.306016   1.334017
 H  -5.728527  -0.950840  -1.245821
 H  -2.827519   2.059300  -0.062144
 H  -8.740666   1.811256   0.096696
 C   2.565679  -7.417755   0.069607
 C   3.365915  -6.536743  -0.658950
 C   1.469668  -6.925719   0.777671
 C   1.164096  -5.567767   0.751108
 C   1.954942  -4.682284   0.003119
 C   3.071125  -5.177803  -0.684407
 C   0.503879  -2.824712  -0.051383
 N   1.707599  -3.298060  -0.055647
 H   4.225445  -6.908931  -1.205009
 H   0.856010  -7.599751   1.364938
 H   0.332047  -5.188633   1.333127
 H   3.688289  -4.485134  -1.244897
 H  -0.369721  -3.478247  -0.062160
 H   2.801960  -8.475125   0.096340






