%nproc=15
%mem=70GB
%chk=TPG_Aldehyde_Imine.chk
#P B3LYP/6-311++G(d,p) EmpiricalDispersion=GD3 opt SCF=YQC

Comment

0 1
 C    1.214670000000000    -0.706990000000000    -0.100210000000000
 C    -0.003630000000000    -1.377070000000000    -0.034780000000000
 O    -0.065580000000000    -2.740060000000000    -0.060670000000000
 C    -1.202870000000000    -0.677230000000000    0.059480000000000
 C    -1.171390000000000    0.714080000000000    0.087980000000000
 O    -2.318460000000000    1.447630000000000    0.179540000000000
 C    0.034640000000000    1.405600000000000    0.023800000000000
 C    1.221460000000000    0.684370000000000    -0.070160000000000
 O    2.430470000000000    1.313820000000000    -0.136030000000000
 H    -3.072450000000000    0.835100000000000    0.215630000000000
 H    2.278920000000000    2.273550000000000    -0.105640000000000
 H    0.839910000000000    -3.087250000000000    -0.127960000000000
 C    6.352018069000000    -4.576621925000000    -0.530025196000000
 C    5.377196163000000    -5.052702493000000    0.348798559000000
 C    6.083024641000000    -3.455030056000000    -1.313504676000000
 C    4.859018699000000    -2.799348504000000    -1.209070511000000
 C    3.882063703000000    -3.264432061000000    -0.313645523000000
 C    4.145526018000000    -4.414741353000000    0.444582202000000
 C    2.510007319000000    -1.390362939000000    -0.178558275000000
 N    2.620376408000000    -2.662399691000000    -0.176624948000000
 H    5.574305150000000    -5.931375961000000    0.952773764000000
 H    6.825148037000000    -3.093909175000000    -2.016995016000000
 H    4.642529062000000    -1.948162946000000    -1.844533856000000
 H    3.374836031000000    -4.783049919000000    1.111333724000000
 H    3.391418825000000    -0.735587923000000    -0.224103776000000
 H    7.305559402000000    -5.084858610000000    -0.614795120000000
 C    -7.198221596000000    -3.043745500000000    -0.021149706000000
 C    -7.059436047000000    -1.926122285000000    0.804028195000000
 C    -6.134100479000000    -3.436340578000000    -0.832125189000000
 C    -4.932492336000000    -2.733090005000000    -0.807797377000000
 C    -4.782545872000000    -1.618670236000000    0.033697913000000
 C    -5.869281892000000    -1.207460491000000    0.819474287000000
 C    -2.464227802000000    -1.425543626000000    0.065725893000000
 N    -3.605663762000000    -0.853838159000000    0.088950390000000
 H    -7.886377558000000    -1.607395983000000    1.428757214000000
 H    -6.242282560000000    -4.288014489000000    -1.494697654000000
 H    -4.120146395000000    -3.022334406000000    -1.464782939000000
 H    -5.753818524000000    -0.329340848000000    1.443770653000000
 H    -2.368016518000000    -2.520273427000000    0.064721661000000
 H    -8.132271163000000    -3.593092135000000    -0.043537677000000
 C    1.044718475000000    7.769966849000000    -0.136554626000000
 C    1.933293403000000    7.093281942000000    0.701176705000000
 C    0.168957781000000    7.042509317000000    -0.941548183000000
 C    0.163637757000000    5.650686845000000    -0.898919045000000
 C    1.043714995000000    4.966234127000000    -0.044800656000000
 C    1.947102888000000    5.703372863000000    0.734974914000000
 C    0.031404437000000    2.872179176000000    0.010729092000000
 N    1.103870772000000    3.564811382000000    0.029145368000000
 H    2.625622271000001    7.651595328000000    1.321395994000000
 H    -0.506805431000000    7.559811738000000    -1.613706179000000
 H    -0.495753827000000    5.089532960000000    -1.551228279000000
 H    2.642092097000000    5.165855553000000    1.369196476000000
 H    -0.960223288000000    3.345718546000000    -0.000490370000000
 H    1.046554124000000    8.853196094999999    -0.173195757000000




