%nproc=15
%mem=70GB
%chk=BiPhenyl_PrimaryAmine_Ketoenamine.chk
#P B3LYP/6-311++G(d,p) EmpiricalDispersion=GD3 opt SCF=YQC NoSymm

Comment

0 1
 C    -0.000000000000000    3.577958000000000    -0.000000182000000
 C    1.133739000000000    2.852350000000000    -0.402520182000000
 C    1.135339000000000    1.463226000000000    -0.401762182000000
 C    -0.000000000000000    0.741600000000000    -0.000000182000000
 C    -1.135339000000000    1.463225000000000    0.401761818000000
 C    -1.133738000000000    2.852349000000000    0.402519818000000
 C    -0.000000000000000    -0.741600000000000    -0.000000182000000
 C    -1.135339000000000    -1.463226000000000    -0.401762182000000
 C    -1.133739000000000    -2.852350000000000    -0.402520182000000
 C    -0.000000000000000    -3.577958000000000    -0.000000182000000
 C    1.133738000000000    -2.852349000000000    0.402519818000000
 C    1.135339000000000    -1.463225000000000    0.401761818000000
 H    -2.020512000000000    -3.385811000000000    -0.727052182000000
 H    -2.020512000000000    3.385812000000000    0.727052818000000
 H    2.020512000000000    -3.385812000000000    0.727052818000000
 H    2.020512000000000    3.385811000000000    -0.727052182000000
 H    -2.015826000000000    -0.929067000000000    -0.740072182000000
 H    -2.015827000000000    0.929068000000000    0.740072818000000
 H    2.015826000000000    0.929067000000000    -0.740072182000000
 H    2.015827000000000    -0.929068000000000    0.740072818000000
 H    -2.484859305000000    9.538862987000000    0.735743724000000
 C    -1.589477602000000    10.116478415000000    0.510844105000000
 C    -1.654759250000000    11.511761358999999    0.564033673000000
 H    -2.589195480000000    12.001433008999999    0.827252534000000
 C    -0.524024718000000    12.272887422000000    0.281465901000000
 H    -0.573249732000000    13.358356412999999    0.321755615000000
 C    0.671986680000000    11.640155994000001    -0.047369953000000
 H    1.556935115000000    12.235022409000001    -0.262504974000000
 C    0.741264788000000    10.243157045000000    -0.096587528000000
 H    1.702575097000000    9.805825237000001    -0.339836756000000
 C    -0.392403193000000    9.463430166000000    0.174434686000000
 C    -0.406895824000000    7.965137605000000    0.139863351000000
 O    -1.401977071000000    7.352911185000000    0.522283577000000
 C    0.787676068000000    7.235846200000000    -0.374339170000000
 C    0.869859301000000    5.897682582000000    -0.394099669000000
 H    1.625033661000000    7.795838161000000    -0.761558672000000
 N    -0.060538925000000    4.981222760000000    0.015872288000000
 H    1.781165792000000    5.461789601000000    -0.790650685000000
 H    -0.930103483000000    5.396563845000000    0.362581421000000
 H    2.484859505000000    -9.538864950000001    0.735743534000000
 C    1.589477740000000    -10.116480388999999    0.510844187000000
 C    1.654759403000000    -11.511763330999999    0.564033809000000
 H    2.589195705000000    -12.001434967000000    0.827252441000000
 C    0.524024795000000    -12.272889407999999    0.281466383000000
 H    0.573249819000000    -13.358358396000000    0.321756138000000
 C    -0.671986693000000    -11.640157996999999    -0.047369179000000
 H    -1.556935186000000    -12.235024422000000    -0.262503930000000
 C    -0.741264814000000    -10.243159049999999    -0.096586806000000
 H    -1.702575189000000    -9.805827254000000    -0.339835796000000
 C    0.392403240000000    -9.463432157000000    0.174435060000000
 C    0.406895862000000    -7.965139597000000    0.139863645000000
 O    1.401977212000000    -7.352913159000000    0.522283570000000
 C    -0.787676170000000    -7.235848219000000    -0.374338589000000
 C    -0.869859408000000    -5.897684602000000    -0.394099134000000
 H    -1.625033868000000    -7.795840200000000    -0.761557835000000
 N    0.060538929000000    -4.981224759000000    0.015872525000000
 H    -1.781166007000000    -5.461791642000000    -0.790649924000000
 H    0.930103582000000    -5.396565827000000    0.362581443000000




