%nproc=15
%mem=70GB
%chk=BiPhenyl_PrimaryAmine_Ketoenamine_freq.chk
#P B3LYP/6-311++G(d,p) EmpiricalDispersion=GD3 freq(noraman) SCF=YQC NoSymm

Restart from BiPhenyl_PrimaryAmine_Ketoenamine.log

0 1
 C   0.062308   3.573396   0.015665
 C   1.186082   2.840053  -0.387239
 C   1.153606   1.451053  -0.381175
 C   0.011636   0.739547   0.014595
 C  -1.109369   1.488149   0.405479
 C  -1.088476   2.874873   0.408231
 C  -0.011577  -0.739533   0.014599
 C  -1.153536  -1.451041  -0.381200
 C  -1.186011  -2.840040  -0.387259
 C  -0.062249  -3.573381   0.015684
 C   1.088524  -2.874857   0.408275
 C   1.109418  -1.488132   0.405516
 H  -2.081542  -3.340628  -0.732716
 H  -1.962629   3.429242   0.732875
 H   1.962668  -3.429225   0.732949
 H   2.081626   3.340637  -0.732666
 H  -2.026886  -0.908604  -0.724936
 H  -2.004067   0.976871   0.741679
 H   2.026966   0.908615  -0.724882
 H   2.004107  -0.976853   0.741737
 H  -2.505065   9.356944  -0.183970
 C  -1.634178   9.986741  -0.051799
 C  -1.746357   11.372349  -0.042694
 H  -2.716784   11.836432  -0.178924
 C  -0.613063   12.165241   0.144547
 H  -0.700075   13.246014   0.156019
 C   0.631379   11.562688   0.322097
 H   1.513361   12.173151   0.479976
 C   0.745421   10.174683   0.301016
 H   1.718618   9.726247   0.456674
 C  -0.385949   9.369590   0.111012
 C  -0.335382   7.869587   0.094166
 O  -1.394958   7.230672   0.238751
 C   0.931126   7.198866  -0.106799
 C   1.047930   5.833557  -0.128608
 H   1.831698   7.771804  -0.267093
 N   0.021762   4.973074   0.038410
 H   2.025295   5.391424  -0.283058
 H  -0.874104   5.441892   0.197014
 H   2.505025  -9.357017  -0.184049
 C   1.634124  -9.986791  -0.051870
 C   1.746261  -11.372403  -0.042806
 H   2.716669  -11.836512  -0.179079
 C   0.612948  -12.165266   0.144449
 H   0.699928  -13.246042   0.155890
 C  -0.631470  -11.562680   0.322055
 H  -1.513466  -12.173121   0.479945
 C  -0.745471  -10.174671   0.301013
 H  -1.718649  -9.726208   0.456714
 C   0.385918  -9.369608   0.110997
 C   0.335393  -7.869604   0.094194
 O   1.394993  -7.230727   0.238779
 C  -0.931103  -7.198848  -0.106739
 C  -1.047887  -5.833536  -0.128545
 H  -1.831691  -7.771768  -0.267006
 N  -0.021708  -4.973060   0.038436
 H  -2.025252  -5.391389  -0.282959
 H   0.874162  -5.441882   0.197005






