%nproc=15
%mem=70GB
%chk=N-TrisPhenyl_BoronicAcid_Borosilicate.chk
#P B3LYP/6-311++G(d,p) EmpiricalDispersion=GD3 opt SCF=YQC

Comment

0 1
 N    0.000000000000000    0.000000000000000    0.000000000000000
 C    1.486664194000000    0.115830323000000    -0.171934194000000
 C    -0.789065806000000    1.237760323000000    0.199745806000000
 C    -0.613895806000000    -1.236089677000000    -0.038794194000000
 C    -0.462675806000000    2.500160323000000    -0.322134194000000
 C    2.176224194000000    -0.918259677000000    -0.846584194000000
 C    -1.765025806000000    -1.441179677000000    -0.822204194000000
 C    -2.007925806000000    1.140170323000000    0.910585806000000
 C    -1.297715806000000    3.610210323000000    -0.126194194000000
 H    0.438864194000000    2.642570323000000    -0.911754194000000
 C    2.273194194000000    1.157440323000000    0.348705806000000
 C    3.570374194000000    -0.927389677000000    -0.965384194000000
 H    1.632104194000000    -1.749019677000000    -1.289124194000000
 C    -0.125815806000000    -2.315259677000000    0.720105806000000
 C    -2.414125806000000    -2.677449677000000    -0.833324194000000
 H    -2.163745806000000    -0.629609677000000    -1.426834194000000
 C    -2.865415806000000    2.233870323000000    1.065575806000000
 H    -2.315445806000000    0.194440323000000    1.350765806000000
 C    -2.504725806000000    3.472930323000000    0.555025806000000
 H    -1.010125806000000    4.580640323000000    -0.521804194000000
 C    3.666684194000001    1.177220323000000    0.186235806000000
 H    1.821684194000000    1.969990323000000    0.911145806000000
 C    4.315594194000000    0.127230323000000    -0.457594194000000
 H    4.064904194000000    -1.761929677000000    -1.456734194000000
 C    -0.759375806000000    -3.559559677000000    0.685245806000000
 H    0.753504194000000    -2.187099677000000    1.347095806000000
 C    -1.906875806000000    -3.737209677000000    -0.084874194000000
 H    -3.314085806000000    -2.810259677000000    -1.427784194000000
 H    -3.812175806000000    2.108150323000000    1.585245806000000
 H    4.245704194000000    2.009030323000000    0.578395806000000
 H    -0.358405806000000    -4.386819677000000    1.264815806000000
 B    -3.409748592000000    4.741385836000000    0.793290302000000
 O    -4.572847033000000    4.637682427000000    1.452043175000000
 O    -3.047067091000000    5.939767470000000    0.312352456000000
Si    -5.902123383000000    5.454313618000000    1.800382711000000
Si    -3.585810210000000    7.429435535000000    0.100070599000000
 O    -5.464866234000000    6.724516562000000    2.666379929000000
 O    -6.497661810000000    6.009397867000000    0.424193857000000
 H    -6.878454583000000    4.617225336000000    2.511806393000000
 O    -4.968313165000000    7.327267318000000    -0.695868595000000
 O    -3.921152681000000    8.025835589000000    1.544980639000000
 H    -2.607859495000000    8.258748552000000    -0.618301827000000
 B    -4.664625471000000    7.799119476000000    2.636946666000000
 H    -4.414852219000000    8.367478457000001    3.640912405000000
 B    -6.180786526000000    6.758921228000000    -0.640926004000000
 H    -6.820524527000000    6.662824146000000    -1.628244346000000
 B    5.886046757000000    0.167209450000000    -0.587578877000000
 O    6.583551101000000    1.217274293000000    -0.131115030000000
 O    6.547912433000000    -0.833836107000000    -1.186577410000000
Si    8.043577646999999    1.867658791000000    -0.154028722000000
Si    7.995078392000000    -1.243722062000000    -1.727061333000000
 O    9.034076408000001    0.834190564000000    0.556897537000000
 O    8.497035391000001    1.972891697000000    -1.683728828000000
 H    8.059110025000001    3.181425240000000    0.504636234000000
 O    8.476761053000001    -0.089068143000000    -2.722062895000000
 O    8.992337084000001    -1.230303692000000    -0.477578371000000
 H    7.970778097000000    -2.554783764000000    -2.390938830000000
 B    9.463313308000000    -0.433710199000000    0.492041138000000
 H    10.019529793000000    -0.908845141000000    1.418451319000000
 B    8.685858720000001    1.233196247000000    -2.785487387000000
 H    8.726391769999999    1.763131014000000    -3.839443307999999
 B    -2.634706589000000    -5.135448139000000    -0.082198850000000
 O    -2.133097656000000    -6.166224529999999    0.613068177000000
 O    -3.750252420000000    -5.326592376000000    -0.801906430000000
Si    -2.294378992000000    -7.742444492999999    0.824542776000000
Si    -4.753664930000000    -6.469155125000000    -1.293975914000000
 O    -3.760842779000000    -7.994838054000000    1.407931126000000
 O    -2.241468103000000    -8.427271687999999    -0.619372891000000
 H    -1.252828297000000    -8.276684387000000    1.713262612000000
 O    -3.877660476000000    -7.593053396000000    -2.018365894000000
 O    -5.389051329000000    -7.140232629000000    0.010574480000000
 H    -5.787907881000000    -5.929443381000000    -2.187988987000000
 B    -5.055944000000000    -7.773079044000000    1.144191131000000
 H    -5.853437698000000    -7.881319762000000    2.007703472000000
 B    -2.836393319000000    -8.413243896000001    -1.820431899000000
 H    -2.271844415000000    -8.867550203000000    -2.752197525000000




