%nproc=15
%mem=70GB
%chk=N_TrisPhenyl_BoronicAcid_Borosilicate_freq.chk
#P B3LYP/6-311++G(d,p) EmpiricalDispersion=GD3 freq(noraman) SCF=YQC NoSymm

Restart from N_TrisPhenyl_BoronicAcid_Borosilicate_pbe_b3lyp.log

0 1
 N  -0.000421  -0.003100  -0.001638
 C   0.443401   1.342475  -0.001771
 C   0.941015  -1.062765   0.000446
 C  -1.388558  -0.291918  -0.002808
 C   2.101625  -0.981525   0.784180
 C  -0.225029   2.310913   0.762370
 C  -1.897871  -1.329041   0.792339
 C   0.722908  -2.206526  -0.781921
 C   3.021428  -2.020244   0.774294
 H   2.271567  -0.102620   1.393899
 C   1.556538   1.724157  -0.765905
 C   0.211667   3.627760   0.752873
 H  -1.082076   2.020911   1.357694
 C  -2.268900   0.455783  -0.798590
 C  -3.257170  -1.607600   0.784752
 H  -1.221438  -1.906480   1.410598
 C   1.646994  -3.241487  -0.773567
 H  -0.170317  -2.272086  -1.391039
 C   2.818764  -3.174852  -0.000777
 H   3.912199  -1.946912   1.388178
 C   1.988962   3.042408  -0.754899
 H   2.073027   0.981778  -1.361844
 C   1.328795   4.027139  -0.000332
 H  -0.311453   4.365018   1.351634
 C  -3.626828   0.170942  -0.789300
 H  -1.878543   1.254492  -1.417372
 C  -4.155221  -0.865793  -0.001347
 H  -3.639331  -2.407195   1.409488
 H   1.469661  -4.117073  -1.388067
 H   2.848241   3.324372  -1.353120
 H  -4.296142   0.752616  -1.413288
 B   3.850422  -4.329400  -0.005631
 O   3.619168  -5.444290  -0.782937
 O   4.988051  -4.226787   0.766306
Si   4.347473  -6.876004  -1.148199
Si   6.337349  -5.106326   1.111897
 O   5.828341  -6.589696  -1.827978
 O   4.539968  -7.770404   0.230185
 H   3.520272  -7.616824  -2.090956
 O   5.901642  -6.555039   1.781465
 O   7.194294  -5.378869  -0.276801
 H   7.169727  -4.371448   2.054741
 B   7.004466  -5.978016  -1.491544
 H   7.892380  -5.967159  -2.281946
 B   5.166414  -7.656782   1.440630
 H   5.068897  -8.546362   2.223173
 B   1.814560   5.497029   0.002211
 O   2.925955   5.846813  -0.734914
 O   1.129862   6.437612   0.742114
Si   3.827878   7.185430  -1.063329
Si   1.208286   8.048066   1.079483
 O   2.880981   8.329756  -1.792070
 O   4.446893   7.799339   0.342711
 H   4.922705   6.828261  -1.955346
 O   2.650881   8.393025   1.812391
 O   1.083240   8.917933  -0.322206
 H   0.115961   8.412870   1.971461
 B   1.751981   9.047600  -1.508233
 H   1.337810   9.810880  -2.320103
 B   3.985704   8.295067   1.531069
 H   4.772182   8.653623   2.347251
 B  -5.672025  -1.177455   0.002242
 O  -6.519238  -0.435923  -0.793238
 O  -6.155629  -2.191183   0.801617
Si  -8.123644  -0.347316  -1.156009
Si  -7.597788  -2.894167   1.175916
 O  -8.631919  -1.788279  -1.790066
 O  -8.986329  -0.016531   0.216364
 H  -8.344996   0.712285  -2.130728
 O  -8.619885  -1.761625   1.815805
 O  -8.275507  -3.535334  -0.190325
 H  -7.383921  -3.955318   2.150620
 B  -8.701439  -3.101921  -1.415625
 H  -9.147862  -3.894118  -2.181357
 B  -9.198657  -0.579297   1.444689
 H  -9.910971  -0.021907   2.216149






