%nproc=15
%mem=70GB
%chk=ETTA_Nitrile_Triazine_freq.chk
#P B3LYP/6-311++G(d,p) EmpiricalDispersion=GD3 freq(noraman) SCF=YQC

Restart from ETTA_Nitrile_Triazine.log

0 1
 C   0.000050   0.681409  -0.000094
 C   0.000049  -0.681398  -0.000072
 C  -1.249712   1.479281  -0.124300
 C  -2.195719   1.198982  -1.121970
 H  -2.016302   0.380022  -1.807474
 C  -3.354068   1.952179  -1.238130
 H  -4.076918   1.730686  -2.012271
 C  -3.604139   3.011115  -0.352888
 C  -2.654988   3.307203   0.636684
 H  -2.842551   4.126861   1.317829
 C  -1.490861   2.559790   0.738206
 H  -0.760010   2.805250   1.500082
 C  -1.249716  -1.479261   0.124172
 C  -2.195687  -1.198945   1.121871
 H  -2.016246  -0.379968   1.807349
 C  -3.354028  -1.952144   1.238089
 H  -4.076836  -1.730659   2.012273
 C  -3.604145  -3.011075   0.352855
 C  -2.655039  -3.307165  -0.636761
 H  -2.842646  -4.126808  -1.317912
 C  -1.490902  -2.559774  -0.738318
 H  -0.760072  -2.805254  -1.500208
 C   1.249787   1.479281   0.124109
 C   1.490887   2.559894  -0.738281
 H   0.760009   2.805425  -1.500110
 C   2.654997   3.307326  -0.636721
 H   2.842509   4.127047  -1.317805
 C   3.604178   3.011188   0.352804
 C   3.354161   1.952147   1.237942
 H   4.077029   1.730604   2.012053
 C   2.195848   1.198915   1.121720
 H   2.016491   0.379858   1.807127
 C   1.249785  -1.479280  -0.124233
 C   2.195865  -1.198966  -1.121843
 H   2.016516  -0.379952  -1.807302
 C   3.354181  -1.952202  -1.238005
 H   4.077077  -1.730677  -2.012095
 C   3.604166  -3.011222  -0.352833
 C   2.654958  -3.307325   0.636676
 H   2.842437  -4.127041   1.317774
 C   1.490863  -2.559864   0.738202
 H   0.759980  -2.805348   1.500041
 C  -4.843460   3.805833  -0.465361
 N  -5.041406   4.807644   0.411233
 C  -6.175572   5.483157   0.259225
 N  -5.718048   3.489977  -1.438201
 C  -6.813992   4.239837  -1.485922
 N  -7.109478   5.254299  -0.668309
 H  -7.537117   4.005820  -2.262452
 H  -6.360406   6.297522   0.954445
 C  -4.843466  -3.805785   0.465379
 N  -5.717706  -3.490342   1.438666
 C  -6.813664  -4.240179   1.486418
 N  -5.041739  -4.807204  -0.411588
 C  -6.175876  -5.482746  -0.259495
 N  -7.109448  -5.254287   0.668474
 H  -6.360939  -6.296845  -0.954967
 H  -7.536497  -4.006512   2.263326
 C   4.843453   3.805960   0.465350
 N   5.717734   3.490503   1.438599
 C   6.813647   4.240403   1.486376
 N   5.041652   4.807442  -0.411561
 C   6.175752   5.483044  -0.259447
 N   7.109356   5.254579   0.668488
 H   6.360758   6.297190  -0.954877
 H   7.536516   4.006722   2.263246
 C   4.843436  -3.806010  -0.465329
 N   5.041278  -4.807917   0.411178
 C   6.175401  -5.483498   0.259145
 N   5.718085  -3.490120  -1.438105
 C   6.813974  -4.240056  -1.485859
 N   7.109359  -5.254617  -0.668331
 H   7.537150  -4.006011  -2.262333
 H   6.360158  -6.297935   0.954302






