%nproc=15
%mem=70GB
%chk=TetraPhenylSilane_PrimaryAmine_Ketoenamine_freq.chk
#P B3LYP/6-311++G(d,p) EmpiricalDispersion=GD3 freq(noraman) SCF=YQC NoSymm

Restart from TetraPhenylSilane_PrimaryAmine_Ketoenamine-2.log

0 1
Si  -0.000003  -0.000016  -0.011359
 C  -0.487345  -3.822673  -2.736100
 C  -3.823713   0.490459   2.711099
 C   0.487356   3.822645  -2.736091
 C   3.823691  -0.490494   2.711120
 C  -1.259309  -3.677153  -1.575746
 C  -3.669239   1.273751   1.559509
 C   1.259313   3.677123  -1.575733
 C   3.669224  -1.273784   1.559527
 C  -1.126829  -2.536619  -0.790188
 C  -2.531578   1.135124   0.770915
 C   1.126828   2.536587  -0.790178
 C   2.531567  -1.135157   0.770927
 C  -0.228697  -1.509183  -1.114574
 C  -1.509353   0.229562   1.091292
 C   0.228697   1.509152  -1.114570
 C   1.509340  -0.229596   1.091301
 C   0.534245  -1.673376  -2.283558
 C  -1.675145  -0.533237   2.260176
 C  -0.534238   1.673347  -2.283559
 C   1.675125   0.533201   2.260187
 C   0.413275  -2.803259  -3.080778
 C  -2.806449  -0.412637   3.055522
 C  -0.413263   2.803231  -3.080776
 C   2.806425   0.412600   3.055539
 H  -1.960918  -4.444341  -1.273519
 H  -4.419020   2.001737   1.276559
 H   1.960920   4.444310  -1.273500
 H   4.419008  -2.001769   1.276580
 H  -1.745063  -2.449456   0.097291
 H  -2.437173   1.762370  -0.109460
 H   1.745056   2.449422   0.097305
 H   2.437168  -1.762401  -0.109450
 H   1.230015  -0.897785  -2.588161
 H  -0.901559  -1.231502   2.564184
 H  -1.230006   0.897757  -2.588167
 H   0.901537   1.231464   2.564192
 H   1.009742  -2.902322  -3.981906
 H  -2.910788  -1.015437   3.951827
 H  -1.009724   2.902297  -3.981908
 H   2.910758   1.015398   3.951846
 H   0.601388  -7.401796  -7.856269
 C   0.103639  -8.323361  -7.581431
 C   0.096317  -9.417394  -8.439061
 H   0.586591  -9.350581  -9.403832
 C  -0.537988  -10.601020  -8.058396
 H  -0.540666  -11.456286  -8.724936
 C  -1.164343  -10.682088  -6.815682
 H  -1.648222  -11.602828  -6.509830
 C  -1.167389  -9.581975  -5.961407
 H  -1.645077  -9.670318  -4.993657
 C  -0.535544  -8.388209  -6.335392
 C  -0.486166  -7.174024  -5.454930
 O   0.349640  -6.284832  -5.702215
 C  -1.419139  -7.051362  -4.354001
 C  -1.418121  -5.980342  -3.500362
 H  -2.174917  -7.805593  -4.195514
 N  -0.563722  -4.937256  -3.578970
 H  -2.151304  -5.942556  -2.703463
 H   0.082565  -5.005769  -4.369341
 H  -7.712930  -1.065899   7.473050
 C  -8.453639  -0.278639   7.408638
 C  -9.523196  -0.226526   8.295085
 H  -9.628824  -0.988358   9.059334
 C  -10.457828   0.806166   8.204389
 H  -11.290079   0.850101   8.898067
 C  -10.315155   1.784694   7.221865
 H  -11.031301   2.595891   7.154477
 C  -9.250111   1.725791   6.326194
 H  -9.147657   2.504556   5.580850
 C  -8.307815   0.691535   6.407199
 C  -7.128119   0.580817   5.486262
 O  -6.178663  -0.156601   5.810248
 C  -7.126082   1.312686   4.236457
 C  -6.075736   1.272714   3.358504
 H  -7.986794   1.896192   3.946872
 N  -4.940220   0.567213   3.551423
 H  -6.142787   1.831658   2.432671
 H  -4.944336   0.028061   4.421065
 H  -0.601409   7.401823  -7.856226
 C  -0.103652   8.323381  -7.581380
 C  -0.096342   9.417430  -8.438990
 H  -0.586634   9.350637  -9.403753
 C   0.537974   10.601047  -8.058316
 H   0.540644   11.456325  -8.724840
 C   1.164352   10.682090  -6.815611
 H   1.648241   11.602823  -6.509752
 C   1.167410   9.581961  -5.961356
 H   1.645116   9.670285  -4.993614
 C   0.535554   8.388205  -6.335352
 C   0.486190   7.174004  -5.454911
 O  -0.349644   6.284834  -5.702176
 C   1.419162   7.051335  -4.353983
 C   1.418139   5.980313  -3.500346
 H   2.174944   7.805562  -4.195494
 N   0.563739   4.937229  -3.578959
 H   2.151321   5.942523  -2.703446
 H  -0.082544   5.005744  -4.369334
 H   7.712946   1.065984   7.472974
 C   8.453655   0.278721   7.408589
 C   9.523231   0.226658   8.295015
 H   9.628876   0.988532   9.059219
 C   10.457862  -0.806039   8.204354
 H   11.290128  -0.849935   8.898017
 C   10.315167  -1.784622   7.221888
 H   11.031312  -2.595822   7.154529
 C   9.250103  -1.725768   6.326236
 H   9.147633  -2.504574   5.580939
 C   8.307808  -0.691508   6.407206
 C   7.128089  -0.580843   5.486293
 O   6.178673   0.156649   5.810230
 C   7.126053  -1.312723   4.236494
 C   6.075711  -1.272751   3.358536
 H   7.986762  -1.896235   3.946917
 N   4.940194  -0.567249   3.551449
 H   6.142764  -1.831699   2.432706
 H   4.944304  -0.028101   4.421094






