%nproc=15
%mem=70GB
%chk=BiPhenyl_Ketoenamine_Ketoenamine.chk
#P B3LYP/6-311++G(d,p) EmpiricalDispersion=GD3 opt SCF=YQC NoSymm

Comment

0 1
 C    -0.000000000000000    3.577958000000000    -0.000000182000000
 C    1.133739000000000    2.852350000000000    -0.402520182000000
 C    1.135339000000000    1.463226000000000    -0.401762182000000
 C    -0.000000000000000    0.741600000000000    -0.000000182000000
 C    -1.135339000000000    1.463225000000000    0.401761818000000
 C    -1.133738000000000    2.852349000000000    0.402519818000000
 C    -0.000000000000000    -0.741600000000000    -0.000000182000000
 C    -1.135339000000000    -1.463226000000000    -0.401762182000000
 C    -1.133739000000000    -2.852350000000000    -0.402520182000000
 C    -0.000000000000000    -3.577958000000000    -0.000000182000000
 C    1.133738000000000    -2.852349000000000    0.402519818000000
 C    1.135339000000000    -1.463225000000000    0.401761818000000
 H    -2.020512000000000    -3.385811000000000    -0.727052182000000
 H    -2.020512000000000    3.385812000000000    0.727052818000000
 H    2.020512000000000    -3.385812000000000    0.727052818000000
 H    2.020512000000000    3.385811000000000    -0.727052182000000
 H    -2.015826000000000    -0.929067000000000    -0.740072182000000
 H    -2.015827000000000    0.929068000000000    0.740072818000000
 H    2.015826000000000    0.929067000000000    -0.740072182000000
 H    2.015827000000000    -0.929068000000000    0.740072818000000
 C    0.080776341000000    5.073590886000000    -0.053322457000000
 O    1.129022122000000    5.619007132000000    -0.392372610000000
 C    -1.123089474000000    5.881890707000000    0.293996834000000
 C    -1.117505739000000    7.222544015000000    0.315067196000000
 H    -2.049190549000000    5.380138812000000    0.529112788000000
 N    -0.083348456000000    8.074324100000000    0.034699806000000
 H    -2.045949712000000    7.719069214000000    0.578106041000000
 C    -0.054600881000000    9.478656371000000    0.044360626000000
 H    0.782617086000000    7.602063035000000    -0.240856227000000
 C    -1.139770275000000    10.274652632000000    0.434642209000000
 C    1.116801968000000    10.133208523000000    -0.367258857000000
 C    -1.059617235000000    11.671857960000001    0.416761315000000
 H    -2.070871658000000    9.828999313000001    0.766559754000000
 C    0.111433659000000    12.299536000000000    0.005064160000000
 H    -1.915745608000000    12.265484362000000    0.726170759000000
 C    1.201709030000000    11.529657692000001    -0.387673017000000
 H    1.981695988000000    9.553503102000001    -0.681419338000000
 H    0.173323822000000    13.384182299000001    -0.009291378000000
 H    2.119953320000000    12.012025447999999    -0.711550919000000
 C    -0.080776356000000    -5.073592889000000    -0.053322177000000
 O    -1.129022228000000    -5.619009152000000    -0.392372018000000
 C    1.123089554000000    -5.881892692000000    0.293996828000000
 C    1.117505824000000    -7.222545998999999    0.315067260000000
 H    2.049190693000000    -5.380140785000000    0.529112505000000
 N    0.083348466000000    -8.074326098000000    0.034700194000000
 H    2.045949869000000    -7.719071184000000    0.578105878000000
 C    0.054600893000000    -9.478658369000000    0.044361093000000
 H    -0.782617152000000    -7.602065047000000    -0.240855628000000
 C    1.139770393000000    -10.274654610000001    0.434642422000000
 C    -1.116802067000000    -10.133210541000000    -0.367258040000000
 C    1.059617348000000    -11.671859939000001    0.416761621000000
 H    2.070871866000000    -9.829001273999999    0.766559691000000
 C    -0.111433658000000    -12.299538000000000    0.005064815000000
 H    1.915745805000000    -12.265486324999999    0.726170863000000
 C    -1.201709135000000    -11.529659712000001    -0.387672105000000
 H    -1.981696173000000    -9.553505137000000    -0.681418315000000
 H    -0.173323825000000    -13.384184299999999    -0.009290651000000
 H    -2.119953513000000    -12.012027484000001    -0.711549734000000




