%nproc=15
%mem=70GB
%chk=TPG_Hydrazide_Hydrazone.chk
#P B3LYP/6-311++G(d,p) EmpiricalDispersion=GD3 opt SCF=YQC

Comment

0 1
 C    1.214670000000000    -0.706990000000000    -0.100210000000000
 C    -0.003630000000000    -1.377070000000000    -0.034780000000000
 O    -0.065580000000000    -2.740060000000000    -0.060670000000000
 C    -1.202870000000000    -0.677230000000000    0.059480000000000
 C    -1.171390000000000    0.714080000000000    0.087980000000000
 O    -2.318460000000000    1.447630000000000    0.179540000000000
 C    0.034640000000000    1.405600000000000    0.023800000000000
 C    1.221460000000000    0.684370000000000    -0.070160000000000
 O    2.430470000000000    1.313820000000000    -0.136030000000000
 H    -3.072450000000000    0.835100000000000    0.215630000000000
 H    2.278920000000000    2.273550000000000    -0.105640000000000
 H    0.839910000000000    -3.087250000000000    -0.127960000000000
 C    2.558601023000000    -1.366673040000000    -0.158423180000000
 O    3.559367248000000    -0.666607327000000    -0.295705341000000
 N    2.580718225000000    -2.750950584000000    -0.047901983000000
 H    1.746347229000000    -3.287318523000000    0.137955916000000
 N    3.769339915000000    -3.410632460000000    -0.151077096000000
 C    3.706339760000000    -4.702344705000000    -0.113566563000000
 C    4.919238712000000    -5.535642176000000    -0.225614180000000
 H    2.744545370000000    -5.235550905000000    -0.008092866000000
 C    4.787592732000000    -6.926984906000000    -0.252479196000000
 C    5.926976115000000    -7.725750769000000    -0.368154946000000
 H    3.811122080000000    -7.398700973999999    -0.190248294000000
 C    7.189348003000000    -7.136018735000000    -0.453772833000000
 H    5.833285796000000    -8.808625779000000    -0.393839763000000
 C    7.317963819000000    -5.747146452000000    -0.424969726000000
 H    8.075841043000000    -7.759093964000000    -0.544688633000000
 C    6.183093266000000    -4.944170090000000    -0.312044915000000
 H    8.300651268999999    -5.287020161000000    -0.492364368000000
 H    6.288171316000000    -3.860804591000000    -0.293182678000000
 C    -2.468573681000000    -1.478402746000000    0.088419686000000
 O    -2.399784888000000    -2.702467637000000    0.002369277000000
 N    -3.655177343000000    -0.768056842000000    0.216125878000000
 H    -3.669311433000000    0.230898868000000    0.358591315000000
 N    -4.841681071000000    -1.439044888000000    0.191011185000000
 C    -5.907975888000000    -0.707923950000000    0.239736140000000
 C    -7.255449784000000    -1.309127585000000    0.209215692000000
 H    -5.856211304000000    0.394262209000000    0.294399657000000
 C    -8.373451684000001    -0.470307568000000    0.190784262000000
 C    -9.653291539000000    -1.027173917000000    0.151898665000000
 H    -8.263396605000001    0.610281707000000    0.200702264000000
 C    -9.812906340000000    -2.413862524000000    0.134153209000000
 H    -10.528196868000000    -0.381998910000000    0.133304307000000
 C    -8.695349509000000    -3.248725339000000    0.154368922000000
 H    -10.810080359000001    -2.846334527000000    0.103003929000000
 C    -7.414388592000000    -2.698024425000000    0.190726232000000
 H    -8.818734747000001    -4.328770082000000    0.139798386000000
 H    -6.545285184000000    -3.353449647000000    0.203177348000000
 C    -0.011996998000000    2.903085986000000    0.032843928000000
 O    -1.100719892000000    3.464854773000000    -0.064981013000000
 N    1.202400199000000    3.565522998000000    0.156719188000000
 H    2.069261238000000    3.071845832000000    0.309177306000000
 N    1.227828006000000    4.927931044000000    0.113771017000000
 C    2.399274971000000    5.475170793000000    0.160001416000000
 C    2.566646632000000    6.940651970000000    0.110860232000000
 H    3.321886300000000    4.871124938000000    0.226325942000000
 C    3.857392780000000    7.476794661000000    0.090553016000000
 C    4.028597920000000    8.861391015000001    0.034125961000000
 H    4.731954314999999    6.832942250000000    0.112458809000000
 C    2.915664317000000    9.703392809000000    0.000826547000000
 H    5.029012249000000    9.286620329000000    0.013949881000000
 C    1.628544985000000    9.165645591000001    0.022953898000000
 H    3.050270082000000    10.781461631000001    -0.043975644000000
 C    1.451470768000000    7.783184213000000    0.076800757000000
 H    0.761247298000000    9.820638693999999    -0.003722344000000
 H    0.445203503000000    7.368079829000000    0.090676237000000




