%nproc=15
%mem=70GB
%chk=TPG_BoronicAcid_Borosilicate_freq_opt_freq_opt_freq_opt_freq.chk
#P B3LYP/6-311++G(d,p) EmpiricalDispersion=GD3 freq(noraman) SCF=YQC

Restart from TPG_BoronicAcid_Borosilicate_freq_opt_freq_opt_freq_opt.log

0 1
 C  -0.023125  -1.443452  -0.000066
 C  -1.218457  -0.675901  -0.001669
 O  -2.413324  -1.286179  -0.003476
 C  -1.239357   0.742783  -0.002101
 C   0.022969   1.394280  -0.002849
 O   0.091718   2.734218  -0.004678
 C   1.262045   0.703065  -0.001253
 C   1.194966  -0.715932   0.000436
 O   2.320843  -1.445652   0.002193
 H  -0.812425   3.098194  -0.006757
 H   3.088203  -0.844737   0.002048
 H  -2.276573  -2.251207  -0.003943
 B  -0.046160  -2.990124   0.001036
 O   1.076152  -3.763415   0.005886
 O  -1.290308  -3.646233  -0.002575
Si   1.772057  -5.242100   0.002210
Si  -1.710631  -5.256926  -0.002923
 O   1.280383  -6.072813   1.350433
 O   1.282290  -6.066059  -1.350605
 H   3.224000  -5.139171   0.003520
 O  -1.111821  -5.985847  -1.354315
 O  -1.113543  -5.986469   1.348699
 H  -3.165362  -5.342072  -0.003964
 B   0.075223  -6.357951   1.923661
 H   0.047752  -6.947437   2.955263
 B   0.079170  -6.352518  -1.927572
 H   0.055882  -6.939007  -2.960978
 B  -2.567333   1.535939  -0.000733
 O  -3.798003   0.950305   0.008393
 O  -2.514020   2.941430  -0.008270
Si  -5.426547   1.085806   0.013323
Si  -3.699401   4.110092  -0.011343
 O  -5.893487   1.932852   1.360126
 O  -5.902854   1.915667  -1.340912
 H  -6.062719  -0.223316   0.023911
 O  -4.634616   3.947751  -1.358538
 O  -4.624905   3.964796   1.344610
 H  -3.046621   5.412844  -0.021691
 B  -5.537235   3.122075   1.926840
 H  -6.030319   3.444093   2.959153
 B  -5.550738   3.097952  -1.924413
 H  -6.050816   3.407417  -2.957192
 B   2.613216   1.456125  -0.001363
 O   2.722375   2.814711  -0.004375
 O   3.803214   0.706325   0.001507
Si   3.656127   4.155956  -0.004381
Si   5.408561   1.146233   0.005499
 O   4.614610   4.146316   1.348674
 O   4.621589   4.141233  -1.352378
 H   2.842255   5.362692  -0.008765
 O   5.745923   2.026102  -1.346483
 O   5.737850   2.030368   1.356834
 H   6.208599  -0.071682   0.009923
 B   5.461760   3.246661   1.927776
 H   5.980836   3.520148   2.961341
 B   5.472613   3.240186  -1.923499
 H   5.997625   3.510329  -2.954928






