%nproc=15
%mem=70GB
%chk=TPG_BoronicAcid_Borosilicate.chk
#P B3LYP/6-311++G(d,p) EmpiricalDispersion=GD3 opt SCF=YQC

Comment

0 1
 C    1.214670000000000    -0.706990000000000    -0.100210000000000
 C    -0.003630000000000    -1.377070000000000    -0.034780000000000
 O    -0.065580000000000    -2.740060000000000    -0.060670000000000
 C    -1.202870000000000    -0.677230000000000    0.059480000000000
 C    -1.171390000000000    0.714080000000000    0.087980000000000
 O    -2.318460000000000    1.447630000000000    0.179540000000000
 C    0.034640000000000    1.405600000000000    0.023800000000000
 C    1.221460000000000    0.684370000000000    -0.070160000000000
 O    2.430470000000000    1.313820000000000    -0.136030000000000
 H    -3.072450000000000    0.835100000000000    0.215630000000000
 H    2.278920000000000    2.273550000000000    -0.105640000000000
 H    0.839910000000000    -3.087250000000000    -0.127960000000000
 B    2.592398338000000    -1.472642045000000    -0.121591612000000
 O    3.749213998000000    -0.797432616000000    -0.179707735000000
 O    2.629324867000000    -2.813370403000000    -0.115147741000000
Si    5.317967941000000    -1.000721734000000    -0.409679798000000
Si    3.628909467000000    -4.048585938000000    -0.286879768000000
 O    5.855777422000000    -1.923174868000000    0.779606413000000
 O    5.499838587000000    -1.830930866000000    -1.764063853000000
 H    6.025855431000000    0.286020142000000    -0.466721068000000
 O    4.391633866000000    -3.854477576000000    -1.678226383000000
 O    4.728222275000000    -3.936811943000000    0.868512177000000
 H    2.913599920000000    -5.331544316999999    -0.236316219000000
 B    5.662103425999999    -3.113240207000000    1.364634523000000
 H    6.101530318000000    -3.311404299000000    2.442132000000000
 B    5.149139123000000    -2.981172865000000    -2.356202993000000
 H    5.237255546000000    -3.079597901000000    -3.529167134000000
 B    -2.575003544000000    -1.450090634000000    0.128411707000000
 O    -2.605585202000000    -2.790451163000000    0.130890169000000
 O    -3.736470259000000    -0.779741694000000    0.152598266000000
Si    -3.606694082000000    -4.029356146000000    -0.003638648000000
Si    -5.317564391000000    -0.991756906000000    0.054569832000000
 O    -4.624826935000000    -3.951762794000000    1.225973194000000
 O    -4.464271259000000    -3.809722230000000    -1.335180098000000
 H    -2.881902797000000    -5.307572274000000    -0.033708281000000
 O    -5.606868475000000    -1.804033635000000    -1.291454547000000
 O    -5.748758651000000    -1.934655060000000    1.271503358000000
 H    -6.035523438000000    0.290509383000000    0.077691132000000
 B    -5.513992991000000    -3.138374598000000    1.812323244000000
 H    -5.868172438000000    -3.360961386000000    2.916124791000000
 B    -5.285592640000000    -2.935651241000000    -1.933600206000000
 H    -5.463284250000000    -3.011076552000000    -3.098088756000000
 B    0.066325821000000    2.980870067000000    0.072130387000000
 O    -1.072386312000000    3.688480313000000    0.060722269000000
 O    1.233917289000000    3.640627615000000    0.092323528000000
Si    -1.629822907000000    5.178449589000000    -0.095670018000000
Si    1.855467000000000    5.108585658000000    -0.022540833000000
 O    -1.050383716000000    6.031917134000000    1.125150972000000
 O    -0.999398993000000    5.787759942000000    -1.432826287000000
 H    -3.098874698000000    5.203589640000000    -0.131972559000000
 O    1.308446242000000    5.752834326000000    -1.379369456000000
 O    1.257799427000000    5.975138462000000    1.180701592000000
 H    3.324561379000000    5.075412359000000    0.006918629000000
 B    0.099707268000000    6.391893490000000    1.711436541000000
 H    0.083638573000000    6.824538215000000    2.809583231000000
 B    0.173217830000000    6.042879020000000    -2.029952381000000
 H    0.203268859000000    6.218899094000000    -3.196747452000000




