%nproc=15
%mem=70GB
%chk=2_Phenyl_Ketoenamine_Ketoenamine.chk
#P B3LYP/6-311++G(d,p) EmpiricalDispersion=GD3 opt SCF=YQC NoSymm

Comment

0 1
 C    -0.000013000000000    -1.415145000000000    0.000000000000000
 C    0.000013000000000    1.415145000000000    0.000000000000000
 C    -1.206999000000000    -0.694755000000000    0.000000000000000
 C    1.206999000000000    0.694755000000000    0.000000000000000
 C    -1.206984000000000    0.694770000000000    0.000000000000000
 C    1.206984000000000    -0.694770000000000    0.000000000000000
 H    2.148535000000000    -1.233078000000000    0.000000000000000
 H    -2.148535000000000    1.233078000000000    0.000000000000000
 H    2.148565000000000    1.233036000000000    0.000000000000000
 H    -2.148565000000000    -1.233036000000000    0.000000000000000
 C    -0.093964030000000    -2.910777026000000    -0.023320798000000
 O    -1.131357480000000    -3.465298632000000    0.333853842000000
 C    1.074352335000000    -3.707699186000000    -0.495786813000000
 C    1.085062190000000    -5.048469332000000    -0.502652836000000
 H    1.951653804000000    -3.196945562000000    -0.862079789000000
 N    0.095069821000000    -5.909976068000000    -0.113631342000000
 H    1.982938118000000    -5.536173824000000    -0.868300296000000
 C    0.066204673000000    -7.315843977000000    0.023605131000000
 H    -0.760775810000000    -5.445493071000000    0.203609520000000
 C    1.219400459000000    -8.111850812000000    0.029518867000000
 C    -1.175416300000000    -7.970384744000000    0.026343237000000
 C    1.137861114000000    -9.509055392000000    0.039401265000000
 H    2.207895212000000    -7.666206557000000    0.031808707000000
 C    -0.103453731000000    -10.136722049999999    0.041948735000000
 H    2.048159468000000    -10.102690140000002    0.045483296000000
 C    -1.262282421000000    -9.366833116000000    0.035423419000000
 H    -2.095563230000000    -7.390670887000000    0.018706537000000
 H    -0.166597464000000    -11.221367770000001    0.049062058000000
 H    -2.235974921000000    -9.849191943999999    0.036423570000000
 C    0.093964030000000    2.910777026000000    0.023320798000000
 O    1.131357480000000    3.465298632000000    -0.333853842000000
 C    -1.074352335000000    3.707699186000000    0.495786813000000
 C    -1.085062190000000    5.048469332000000    0.502652836000000
 H    -1.951653804000000    3.196945562000000    0.862079789000000
 N    -0.095069821000000    5.909976068000000    0.113631342000000
 H    -1.982938118000000    5.536173824000000    0.868300296000000
 C    -0.066204673000000    7.315843977000000    -0.023605131000000
 H    0.760775810000000    5.445493071000000    -0.203609520000000
 C    -1.219400459000000    8.111850812000000    -0.029518867000000
 C    1.175416300000000    7.970384744000000    -0.026343237000000
 C    -1.137861114000000    9.509055392000000    -0.039401265000000
 H    -2.207895212000000    7.666206557000000    -0.031808707000000
 C    0.103453731000000    10.136722049999999    -0.041948735000000
 H    -2.048159468000000    10.102690140000002    -0.045483296000000
 C    1.262282421000000    9.366833116000000    -0.035423419000000
 H    2.095563230000000    7.390670887000000    -0.018706537000000
 H    0.166597464000000    11.221367770000001    -0.049062058000000
 H    2.235974921000000    9.849191943999999    -0.036423570000000




