%nproc=15
%mem=70GB
%chk=2_Phenyl_Ketoenamine_Ketoenamine_freq.chk
#P B3LYP/6-311++G(d,p) EmpiricalDispersion=GD3 freq(noraman) SCF=YQC NoSymm

Restart from 2_Phenyl_Ketoenamine_Ketoenamine.log

0 1
 C   0.012100  -1.409960  -0.024187
 C  -0.012104   1.409960   0.024176
 C  -1.197932  -0.704361  -0.034798
 C   1.197928   0.704361   0.034787
 C  -1.211101   0.683662  -0.014240
 C   1.211097  -0.683662   0.014229
 H   2.163370  -1.197852   0.049075
 H  -2.163373   1.197852  -0.049086
 H   2.122282   1.267516   0.061715
 H  -2.122285  -1.267516  -0.061726
 C  -0.044946  -2.909960  -0.034997
 O  -1.120626  -3.471351   0.247444
 C   1.135604  -3.665035  -0.391064
 C   1.158611  -5.035773  -0.402617
 H   2.036265  -3.154765  -0.696816
 N   0.110980  -5.823764  -0.085580
 H   2.069173  -5.544385  -0.697627
 C   0.073656  -7.225401  -0.046127
 H  -0.738673  -5.297331   0.133318
 C   1.225239  -8.022368  -0.094740
 C  -1.180657  -7.843763   0.060826
 C   1.112601  -9.409542  -0.056448
 H   2.208883  -7.572964  -0.143844
 C  -0.134653  -10.023470   0.043853
 H   2.012456  -10.013132  -0.094437
 C  -1.279623  -9.229209   0.107355
 H  -2.074274  -7.230099   0.100746
 H  -0.212983  -11.103434   0.077818
 H  -2.257703  -9.689429   0.189498
 C   0.044943   2.909960   0.034985
 O   1.120624   3.471350  -0.247450
 C  -1.135605   3.665035   0.391059
 C  -1.158611   5.035773   0.402617
 H  -2.036266   3.154765   0.696813
 N  -0.110980   5.823764   0.085579
 H  -2.069172   5.544385   0.697632
 C  -0.073655   7.225401   0.046130
 H   0.738671   5.297331  -0.133325
 C  -1.225237   8.022369   0.094751
 C   1.180658   7.843762  -0.060827
 C  -1.112598   9.409543   0.056463
 H  -2.208882   7.572966   0.143857
 C   0.134657   10.023470  -0.043842
 H  -2.012452   10.013134   0.094458
 C   1.279625   9.229208  -0.107352
 H   2.074274   7.230097  -0.100753
 H   0.212988   11.103434  -0.077803
 H   2.257706   9.689428  -0.189497






