%nproc=15
%mem=70GB
%chk=TPG_Aldehyde_Benzobisoxazole.chk
#P B3LYP/6-311++G(d,p) EmpiricalDispersion=GD3 opt SCF=YQC

Comment

0 1
 C    1.214670000000000    -0.706990000000000    -0.100210000000000
 C    -0.003630000000000    -1.377070000000000    -0.034780000000000
 O    -0.065580000000000    -2.740060000000000    -0.060670000000000
 C    -1.202870000000000    -0.677230000000000    0.059480000000000
 C    -1.171390000000000    0.714080000000000    0.087980000000000
 O    -2.318460000000000    1.447630000000000    0.179540000000000
 C    0.034640000000000    1.405600000000000    0.023800000000000
 C    1.221460000000000    0.684370000000000    -0.070160000000000
 O    2.430470000000000    1.313820000000000    -0.136030000000000
 H    -3.072450000000000    0.835100000000000    0.215630000000000
 H    2.278920000000000    2.273550000000000    -0.105640000000000
 H    0.839910000000000    -3.087250000000000    -0.127960000000000
 H    7.714068320000000    -3.046304459000000    -0.588590469000000
 C    6.629401537000000    -3.036251401000000    -0.495431350000000
 C    5.935174648000000    -4.251149672000000    -0.421885348000000
 H    6.487199351000000    -5.188399461000000    -0.458943897000000
 C    4.537120794000000    -4.281833405000000    -0.301800199000000
 H    3.996056043000000    -5.219622184000000    -0.245241008000000
 C    3.851453984000000    -3.061244083000000    -0.259141293000000
 N    2.513629234000000    -2.780460100000000    -0.151782551000000
 C    4.574857867000000    -1.883130786000000    -0.335479493000000
 O    3.691492609000000    -0.846165178000000    -0.277880993000000
 C    5.957284277000000    -1.808280121000000    -0.452653709000000
 H    6.475778641000000    -0.859765856000000    -0.508924844000000
 C    2.465985626000000    -1.458713476000000    -0.170676084000000
 H    -6.607247517000000    -5.006196557000000    -0.016929023000000
 C    -6.028953564000000    -4.084226818000000    0.011874093000000
 C    -6.698979594000000    -2.854495507000000    0.058390946000000
 H    -7.787161871000000    -2.835552909000000    0.064893778000000
 C    -5.990789534000000    -1.643311610000000    0.096032946000000
 H    -6.505290309000000    -0.689668934000000    0.131422194000000
 C    -4.591211102000000    -1.696517862000000    0.083935082000000
 N    -3.649556599000000    -0.700120119000000    0.108813598000000
 C    -3.967867391000000    -2.931957390000000    0.036781826000000
 O    -2.620999584000000    -2.720176253000000    0.030051466000000
 C    -4.630149475999999    -4.152821506000000    0.000609363000000
 H    -4.094721384000000    -5.092854654000000    -0.035950145000000
 C    -2.499180797000000    -1.351967946000000    0.071787389000000
 H    -0.945673600000000    8.258554222000001    -0.146757406000000
 C    -0.445806975000000    7.292365766000000    -0.103226472000000
 C    0.953586863000000    7.244926062000000    -0.050461345000000
 H    1.523039061000000    8.172425003000001    -0.053879749000000
 C    1.636442720000000    6.020005296000000    0.006049786000000
 H    2.719068599000000    5.978818445000000    0.046331931000000
 C    0.879211992000000    4.841702051000000    0.006419889000000
 N    1.258477373000000    3.524741425000000    0.050158733000000
 C    -0.501364444000000    4.932233059000000    -0.047473344000000
 O    -1.003628624000000    3.664709037000000    -0.039536979000000
 C    -1.215899131000000    6.122561513000000    -0.102186674000000
 H    -2.297438680000000    6.138795212000000    -0.143306372000000
 C    0.112507592000000    2.864962081000000    0.017211839000000




