%nproc=15
%mem=70GB
%chk=T-brick_Aldehyde_Hydrazone_freq.chk
#P B3LYP/6-311++G(d,p) EmpiricalDispersion=GD3 freq(noraman) SCF=YQC NoSymm

Restart from T-brick_Aldehyde_Hydrazone.log

0 1
 N   1.089504  -2.517863  -0.552821
 C   0.727355  -1.217965  -0.258110
 C  -0.687622  -1.230667  -0.253609
 N  -1.144601  -2.502262  -0.540860
 C  -1.413653  -0.040071  -0.026166
 C  -2.889914   0.005379  -0.010920
 C  -0.642693   1.110767   0.179122
 H  -1.145787   2.045476   0.395298
 C   0.757455   1.102237   0.161317
 H   1.288759   2.026133   0.359390
 C   1.496978  -0.065140  -0.053962
 C   2.973360  -0.085411  -0.074595
 C  -3.577196   1.135596  -0.494924
 C   3.699109   0.915341  -0.734779
 C   3.695546  -1.108866   0.569735
 C  -3.650263  -1.061181   0.491567
 C  -5.037174  -0.989742   0.522865
 H  -3.149494  -1.947923   0.854110
 C   5.080320  -1.140274   0.544894
 H   3.158548  -1.864860   1.132372
 C  -5.714974   0.141217   0.047248
 H  -5.603181  -1.825168   0.923502
 C  -4.959507   1.207665  -0.468208
 H  -3.015940   1.958391  -0.922245
 C   5.088761   0.889905  -0.757832
 H   3.166545   1.705737  -1.250757
 C   5.801572  -0.139557  -0.128166
 H   5.624193  -1.927069   1.053405
 H   5.627745   1.671774  -1.283846
 H  -5.474092   2.080041  -0.852064
 C  -0.072951  -3.244996  -0.720691
 H   2.027528  -2.829876  -0.744305
 C  -0.086571  -4.669117  -1.049416
 C  -1.300948  -5.274765  -1.422890
 C  -1.352794  -6.618872  -1.741988
 H  -2.193884  -4.663647  -1.457913
 C   1.071032  -5.456716  -1.000725
 C  -0.189205  -7.409349  -1.698956
 H  -2.289061  -7.080202  -2.030824
 C   1.019079  -6.807285  -1.323601
 H   2.019909  -5.032251  -0.692131
 H   1.925463  -7.402165  -1.276380
 H  -13.841742  -0.490808  -0.900313
 C  -13.413274   0.479811  -0.677821
 C  -14.240091   1.546948  -0.331513
 H  -15.313133   1.404227  -0.271132
 C  -13.685287   2.801862  -0.075832
 H  -14.326778   3.635870   0.185195
 C  -12.309685   2.987639  -0.161272
 H  -11.863365   3.958758   0.014581
 C  -11.470877   1.915404  -0.484699
 C  -9.996298   2.195031  -0.571284
 C  -12.033485   0.661240  -0.752043
 H  -11.406933  -0.169070  -1.058945
 O  -9.554296   3.282368  -0.879125
 N  -9.196459   1.107708  -0.251203
 H  -9.625888   0.283208   0.159330
 N  -7.844443   1.184856  -0.326739
 C  -7.174307   0.176937   0.092624
 H  -7.674690  -0.710036   0.505952
 H   13.933304   0.682508   0.718883
 C   13.511933  -0.309824   0.605843
 C   14.346794  -1.403158   0.382104
 H   15.418852  -1.260281   0.307337
 C   13.801669  -2.682874   0.267848
 H   14.449683  -3.536021   0.102692
 C   12.427352  -2.868023   0.371933
 H   11.988588  -3.856012   0.304868
 C   11.580543  -1.772223   0.572566
 C   10.108947  -2.050681   0.687511
 C   12.133463  -0.491709   0.698471
 H   11.500862   0.363287   0.910571
 O   9.670399  -3.101489   1.105434
 N   9.299851  -1.006520   0.255626
 H   9.721496  -0.229088  -0.244915
 N   7.951088  -1.088862   0.343799
 C   7.262093  -0.147519  -0.184405
 H   7.741239   0.693479  -0.704204
 H   0.141165  -14.993258  -4.837129
 C  -0.750862  -14.680310  -4.306636
 C  -1.727182  -15.615147  -3.967084
 H  -1.589185  -16.659899  -4.221599
 C  -2.887770  -15.202072  -3.311117
 H  -3.652563  -15.925859  -3.053682
 C  -3.069242  -13.860882  -2.991573
 H  -3.971702  -13.519350  -2.499577
 C  -2.082754  -12.920147  -3.307808
 C  -2.354431  -11.488603  -2.942910
 C  -0.925348  -13.337744  -3.976587
 H  -0.174324  -12.617029  -4.281107
 O  -3.474434  -11.029724  -2.874059
 N  -1.209639  -10.746008  -2.673855
 H  -0.319588  -11.227449  -2.579286
 N  -1.288579  -9.428819  -2.375419
 C  -0.209242  -8.832442  -2.029160
 H   0.747925  -9.368071  -1.966298






